BEGIN Configuration File: examples/report_sample
// $Id: mesh88_lat 5519 2013-11-26 08:11:45Z dub $

// Copyright (c) 2007-2012, Trustees of The Leland Stanford Junior University
// All rights reserved.
//
// Redistribution and use in source and binary forms, with or without
// modification, are permitted provided that the following conditions are met:
//
// Redistributions of source code must retain the above copyright notice, this
// list of conditions and the following disclaimer.
// Redistributions in binary form must reproduce the above copyright notice,
// this list of conditions and the following disclaimer in the documentation
// and/or other materials provided with the distribution.
//
// THIS SOFTWARE IS PROVIDED BY THE COPYRIGHT HOLDERS AND CONTRIBUTORS "AS IS"
// AND ANY EXPRESS OR IMPLIED WARRANTIES, INCLUDING, BUT NOT LIMITED TO, THE
// IMPLIED WARRANTIES OF MERCHANTABILITY AND FITNESS FOR A PARTICULAR PURPOSE
// ARE DISCLAIMED. IN NO EVENT SHALL THE COPYRIGHT OWNER OR CONTRIBUTORS BE
// LIABLE FOR ANY DIRECT, INDIRECT, INCIDENTAL, SPECIAL, EXEMPLARY, OR
// CONSEQUENTIAL DAMAGES (INCLUDING, BUT NOT LIMITED TO, PROCUREMENT OF
// SUBSTITUTE GOODS OR SERVICES; LOSS OF USE, DATA, OR PROFITS; OR BUSINESS
// INTERRUPTION) HOWEVER CAUSED AND ON ANY THEORY OF LIABILITY, WHETHER IN
// CONTRACT, STRICT LIABILITY, OR TORT (INCLUDING NEGLIGENCE OR OTHERWISE)
// ARISING IN ANY WAY OUT OF THE USE OF THIS SOFTWARE, EVEN IF ADVISED OF THE
// POSSIBILITY OF SUCH DAMAGE.

//8X8 mesh with 20 flits per packet under injection mode
//injection rate here is packet per cycle, NOT flit per cycle

// Topology

topology = mesh;
k = 8;
n = 2;

// Routing
routing_function = xy_yx;

// Flow control
num_vcs     = 8;
vc_buf_size = 8;
wait_for_tail_credit = 1;

// Router architecture
vc_allocator = islip;
sw_allocator = islip;
alloc_iters  = 1;

credit_delay   = 2;
routing_delay  = 0;
vc_alloc_delay = 1;
sw_alloc_delay = 1;

input_speedup     = 2;
output_speedup    = 1;
internal_speedup  = 1.0;


// Traffic
traffic = uniform;
packet_size = 1;

// Total periods
warmup_periods = 5;
sample_period = 20;
max_samples = 10;

//watch_file = watch_file_test.txt;
//watch_flits = {1,2,3,4,5,6,7,8,9,10,11,12,13,14,15,16,17,18,19,20,21,22,23,24,25,26,27,28,29,30,31,32,33,34,35,36,37,38,39,40};

// Simulation
sim_type = latency;

//injection_rate = 0.005;
//max_flits_per_cycle = 4;

END Configuration File: examples/report_sample
Time: 4 Flit Id: 0 Channel: 0 Router 35 dest: 36
Time: 5 Flit Id: 1 Channel: 0 Router 35 dest: 36
Time: 5 Flit Id: 3 Channel: 1 Router 36 dest: 35
Time: 6 Flit Id: 11 Channel: 1 Router 28 dest: 35
Time: 6 Flit Id: 2 Channel: 0 Router 35 dest: 36
Time: 6 Flit Id: 4 Channel: 1 Router 36 dest: 35
Time: 7 Flit Id: 12 Channel: 1 Router 28 dest: 35
Time: 7 Flit Id: 5 Channel: 1 Router 36 dest: 35
Time: 8 Flit Id: 13 Channel: 2 Router 28 dest: 35
Time: 8 Flit Id: 6 Channel: 1 Router 36 dest: 35
Time: 8 Flit Id: 0 Channel: 4 Router 36 dest: 36
Time: 9 Flit Id: 14 Channel: 2 Router 28 dest: 35
Time: 9 Flit Id: 3 Channel: 4 Router 35 dest: 35
Time: 9 Flit Id: 7 Channel: 1 Router 36 dest: 35
Time: 9 Flit Id: 1 Channel: 4 Router 36 dest: 36
Time: 10 Flit Id: 11 Channel: 2 Router 27 dest: 35
Time: 10 Flit Id: 19 Channel: 2 Router 28 dest: 36
Time: 10 Flit Id: 4 Channel: 4 Router 35 dest: 35
Time: 10 Flit Id: 8 Channel: 1 Router 36 dest: 35
Time: 10 Flit Id: 2 Channel: 4 Router 36 dest: 36
Time: 11 Flit Id: 12 Channel: 2 Router 27 dest: 35
Time: 11 Flit Id: 20 Channel: 2 Router 28 dest: 36
Time: 11 Flit Id: 5 Channel: 4 Router 35 dest: 35
Time: 11 Flit Id: 9 Channel: 1 Router 36 dest: 35
Time: 12 Flit Id: 21 Channel: 2 Router 28 dest: 36
Time: 12 Flit Id: 42 Channel: 0 Router 35 dest: 36
Time: 12 Flit Id: 6 Channel: 4 Router 35 dest: 35
Time: 12 Flit Id: 10 Channel: 1 Router 36 dest: 35
Time: 13 Flit Id: 49 Channel: 0 Router 27 dest: 36
Time: 13 Flit Id: 22 Channel: 2 Router 28 dest: 36
Time: 13 Flit Id: 43 Channel: 0 Router 35 dest: 36
Time: 13 Flit Id: 7 Channel: 4 Router 35 dest: 35
Time: 13 Flit Id: 15 Channel: 3 Router 36 dest: 28
Time: 14 Flit Id: 50 Channel: 0 Router 27 dest: 36
Time: 14 Flit Id: 44 Channel: 0 Router 35 dest: 36
Time: 14 Flit Id: 8 Channel: 4 Router 35 dest: 35
Time: 14 Flit Id: 16 Channel: 3 Router 36 dest: 28
Time: 14 Flit Id: 19 Channel: 4 Router 36 dest: 36
Time: 15 Flit Id: 51 Channel: 0 Router 27 dest: 36
Time: 15 Flit Id: 24 Channel: 2 Router 28 dest: 36
Time: 15 Flit Id: 45 Channel: 0 Router 35 dest: 36
Time: 15 Flit Id: 9 Channel: 4 Router 35 dest: 35
Time: 15 Flit Id: 13 Channel: 1 Router 36 dest: 35
Time: 15 Flit Id: 17 Channel: 3 Router 36 dest: 28
Time: 16 Flit Id: 52 Channel: 0 Router 27 dest: 36
Time: 16 Flit Id: 10 Channel: 4 Router 35 dest: 35
Time: 16 Flit Id: 14 Channel: 1 Router 36 dest: 35
Time: 16 Flit Id: 18 Channel: 3 Router 36 dest: 28
Time: 16 Flit Id: 42 Channel: 4 Router 36 dest: 36
Time: 17 Flit Id: 53 Channel: 2 Router 27 dest: 36
Time: 17 Flit Id: 49 Channel: 2 Router 28 dest: 36
Time: 17 Flit Id: 15 Channel: 4 Router 28 dest: 28
Time: 17 Flit Id: 11 Channel: 4 Router 35 dest: 35
Time: 17 Flit Id: 34 Channel: 3 Router 36 dest: 28
Time: 17 Flit Id: 20 Channel: 4 Router 36 dest: 36
Time: 18 Flit Id: 16 Channel: 4 Router 28 dest: 28
Time: 18 Flit Id: 48 Channel: 0 Router 35 dest: 36
Time: 18 Flit Id: 12 Channel: 4 Router 35 dest: 35
Time: 18 Flit Id: 35 Channel: 3 Router 36 dest: 28
Time: 18 Flit Id: 43 Channel: 4 Router 36 dest: 36
Time: 19 Flit Id: 28 Channel: 1 Router 28 dest: 27
Time: 19 Flit Id: 50 Channel: 2 Router 28 dest: 36
Time: 19 Flit Id: 17 Channel: 4 Router 28 dest: 28
Time: 19 Flit Id: 13 Channel: 4 Router 35 dest: 35
Time: 19 Flit Id: 36 Channel: 3 Router 36 dest: 28
Time: 19 Flit Id: 45 Channel: 4 Router 36 dest: 36
Time: 20 Flit Id: 29 Channel: 1 Router 28 dest: 27
Time: 20 Flit Id: 18 Channel: 4 Router 28 dest: 28
Time: 20 Flit Id: 58 Channel: 0 Router 35 dest: 36
Time: 20 Flit Id: 14 Channel: 4 Router 35 dest: 35
Time: 20 Flit Id: 37 Channel: 3 Router 36 dest: 28
Time: 20 Flit Id: 21 Channel: 4 Router 36 dest: 36
Time: 21 Flit Id: 74 Channel: 2 Router 27 dest: 36
Time: 21 Flit Id: 30 Channel: 1 Router 28 dest: 27
Time: 21 Flit Id: 23 Channel: 2 Router 28 dest: 36
Time: 21 Flit Id: 34 Channel: 4 Router 28 dest: 28
Time: 21 Flit Id: 59 Channel: 0 Router 35 dest: 36
Time: 21 Flit Id: 44 Channel: 4 Router 36 dest: 36
Time: 22 Flit Id: 75 Channel: 2 Router 27 dest: 36
Time: 22 Flit Id: 31 Channel: 1 Router 28 dest: 27
Time: 22 Flit Id: 25 Channel: 2 Router 28 dest: 36
Time: 22 Flit Id: 35 Channel: 4 Router 28 dest: 28
Time: 22 Flit Id: 89 Channel: 3 Router 36 dest: 28
Time: 22 Flit Id: 24 Channel: 4 Router 36 dest: 36
Time: 23 Flit Id: 54 Channel: 0 Router 27 dest: 36
Time: 23 Flit Id: 76 Channel: 2 Router 27 dest: 36
Time: 23 Flit Id: 28 Channel: 4 Router 27 dest: 27
Time: 23 Flit Id: 27 Channel: 2 Router 28 dest: 36
Time: 23 Flit Id: 36 Channel: 4 Router 28 dest: 28
Time: 23 Flit Id: 60 Channel: 0 Router 35 dest: 36
Time: 23 Flit Id: 90 Channel: 3 Router 36 dest: 28
Time: 23 Flit Id: 49 Channel: 4 Router 36 dest: 36
Time: 24 Flit Id: 77 Channel: 0 Router 27 dest: 36
Time: 24 Flit Id: 29 Channel: 4 Router 27 dest: 27
Time: 24 Flit Id: 32 Channel: 1 Router 28 dest: 27
Time: 24 Flit Id: 37 Channel: 4 Router 28 dest: 28
Time: 24 Flit Id: 61 Channel: 0 Router 35 dest: 36
Time: 24 Flit Id: 62 Channel: 3 Router 35 dest: 27
Time: 24 Flit Id: 92 Channel: 3 Router 36 dest: 28
Time: 24 Flit Id: 50 Channel: 4 Router 36 dest: 36
Time: 25 Flit Id: 30 Channel: 4 Router 27 dest: 27
Time: 25 Flit Id: 33 Channel: 1 Router 28 dest: 27
Time: 25 Flit Id: 51 Channel: 2 Router 28 dest: 36
Time: 25 Flit Id: 46 Channel: 0 Router 35 dest: 36
Time: 25 Flit Id: 105 Channel: 1 Router 36 dest: 27
Time: 25 Flit Id: 22 Channel: 4 Router 36 dest: 36
Time: 26 Flit Id: 31 Channel: 4 Router 27 dest: 27
Time: 26 Flit Id: 38 Channel: 1 Router 28 dest: 35
Time: 26 Flit Id: 89 Channel: 4 Router 28 dest: 28
Time: 26 Flit Id: 53 Channel: 0 Router 35 dest: 36
Time: 26 Flit Id: 64 Channel: 3 Router 35 dest: 27
Time: 26 Flit Id: 106 Channel: 1 Router 36 dest: 27
Time: 26 Flit Id: 91 Channel: 3 Router 36 dest: 28
Time: 26 Flit Id: 23 Channel: 4 Router 36 dest: 36
Time: 27 Flit Id: 97 Channel: 0 Router 27 dest: 28
Time: 27 Flit Id: 26 Channel: 2 Router 28 dest: 36
Time: 27 Flit Id: 90 Channel: 4 Router 28 dest: 28
Time: 27 Flit Id: 63 Channel: 3 Router 35 dest: 27
Time: 27 Flit Id: 107 Channel: 1 Router 36 dest: 27
Time: 27 Flit Id: 27 Channel: 4 Router 36 dest: 36
Time: 28 Flit Id: 98 Channel: 0 Router 27 dest: 28
Time: 28 Flit Id: 32 Channel: 4 Router 27 dest: 27
Time: 28 Flit Id: 40 Channel: 1 Router 28 dest: 35
Time: 28 Flit Id: 77 Channel: 2 Router 28 dest: 36
Time: 28 Flit Id: 92 Channel: 4 Router 28 dest: 28
Time: 28 Flit Id: 65 Channel: 3 Router 35 dest: 27
Time: 28 Flit Id: 108 Channel: 1 Router 36 dest: 27
Time: 28 Flit Id: 25 Channel: 4 Router 36 dest: 36
Time: 29 Flit Id: 99 Channel: 0 Router 27 dest: 28
Time: 29 Flit Id: 33 Channel: 4 Router 27 dest: 27
Time: 29 Flit Id: 52 Channel: 2 Router 28 dest: 36
Time: 29 Flit Id: 105 Channel: 3 Router 35 dest: 27
Time: 29 Flit Id: 59 Channel: 4 Router 36 dest: 36
Time: 30 Flit Id: 78 Channel: 0 Router 27 dest: 36
Time: 30 Flit Id: 38 Channel: 2 Router 27 dest: 35
Time: 30 Flit Id: 62 Channel: 4 Router 27 dest: 27
Time: 30 Flit Id: 39 Channel: 2 Router 28 dest: 35
Time: 30 Flit Id: 91 Channel: 4 Router 28 dest: 28
Time: 30 Flit Id: 79 Channel: 0 Router 35 dest: 28
Time: 30 Flit Id: 48 Channel: 4 Router 36 dest: 36
Time: 31 Flit Id: 63 Channel: 4 Router 27 dest: 27
Time: 31 Flit Id: 97 Channel: 4 Router 28 dest: 28
Time: 31 Flit Id: 111 Channel: 3 Router 36 dest: 27
Time: 31 Flit Id: 58 Channel: 4 Router 36 dest: 36
Time: 32 Flit Id: 40 Channel: 2 Router 27 dest: 35
Time: 32 Flit Id: 64 Channel: 4 Router 27 dest: 27
Time: 32 Flit Id: 69 Channel: 2 Router 28 dest: 35
Time: 32 Flit Id: 98 Channel: 4 Router 28 dest: 28
Time: 32 Flit Id: 51 Channel: 4 Router 36 dest: 36
Time: 33 Flit Id: 100 Channel: 0 Router 27 dest: 28
Time: 33 Flit Id: 105 Channel: 4 Router 27 dest: 27
Time: 33 Flit Id: 70 Channel: 1 Router 28 dest: 35
Time: 33 Flit Id: 99 Channel: 4 Router 28 dest: 28
Time: 33 Flit Id: 122 Channel: 3 Router 36 dest: 28
Time: 33 Flit Id: 61 Channel: 4 Router 36 dest: 36
Time: 34 Flit Id: 55 Channel: 0 Router 27 dest: 36
Time: 34 Flit Id: 65 Channel: 4 Router 27 dest: 27
Time: 34 Flit Id: 41 Channel: 1 Router 28 dest: 35
Time: 34 Flit Id: 71 Channel: 2 Router 28 dest: 35
Time: 34 Flit Id: 74 Channel: 0 Router 35 dest: 36
Time: 34 Flit Id: 83 Channel: 3 Router 35 dest: 28
Time: 34 Flit Id: 38 Channel: 4 Router 35 dest: 35
Time: 34 Flit Id: 39 Channel: 1 Router 36 dest: 35
Time: 34 Flit Id: 123 Channel: 3 Router 36 dest: 28
Time: 34 Flit Id: 53 Channel: 4 Router 36 dest: 36
Time: 35 Flit Id: 102 Channel: 0 Router 27 dest: 28
Time: 35 Flit Id: 72 Channel: 1 Router 28 dest: 35
Time: 35 Flit Id: 81 Channel: 0 Router 35 dest: 28
Time: 35 Flit Id: 66 Channel: 3 Router 35 dest: 27
Time: 35 Flit Id: 109 Channel: 1 Router 36 dest: 27
Time: 35 Flit Id: 79 Channel: 3 Router 36 dest: 28
Time: 35 Flit Id: 60 Channel: 4 Router 36 dest: 36
Time: 36 Flit Id: 131 Channel: 0 Router 27 dest: 28
Time: 36 Flit Id: 111 Channel: 1 Router 28 dest: 27
Time: 36 Flit Id: 82 Channel: 0 Router 35 dest: 28
Time: 36 Flit Id: 93 Channel: 3 Router 35 dest: 27
Time: 36 Flit Id: 40 Channel: 4 Router 35 dest: 35
Time: 36 Flit Id: 69 Channel: 1 Router 36 dest: 35
Time: 36 Flit Id: 124 Channel: 3 Router 36 dest: 28
Time: 36 Flit Id: 46 Channel: 4 Router 36 dest: 36
Time: 37 Flit Id: 70 Channel: 2 Router 27 dest: 35
Time: 37 Flit Id: 67 Channel: 1 Router 28 dest: 35
Time: 37 Flit Id: 54 Channel: 2 Router 28 dest: 36
Time: 37 Flit Id: 100 Channel: 4 Router 28 dest: 28
Time: 37 Flit Id: 106 Channel: 3 Router 35 dest: 27
Time: 37 Flit Id: 125 Channel: 3 Router 36 dest: 28
Time: 37 Flit Id: 52 Channel: 4 Router 36 dest: 36
Time: 38 Flit Id: 83 Channel: 0 Router 27 dest: 28
Time: 38 Flit Id: 41 Channel: 2 Router 27 dest: 35
Time: 38 Flit Id: 84 Channel: 1 Router 28 dest: 27
Time: 38 Flit Id: 123 Channel: 4 Router 28 dest: 28
Time: 38 Flit Id: 80 Channel: 0 Router 35 dest: 28
Time: 38 Flit Id: 39 Channel: 4 Router 35 dest: 35
Time: 38 Flit Id: 71 Channel: 1 Router 36 dest: 35
Time: 38 Flit Id: 127 Channel: 3 Router 36 dest: 28
Time: 38 Flit Id: 74 Channel: 4 Router 36 dest: 36
Time: 39 Flit Id: 133 Channel: 0 Router 27 dest: 28
Time: 39 Flit Id: 72 Channel: 2 Router 27 dest: 35
Time: 39 Flit Id: 66 Channel: 4 Router 27 dest: 27
Time: 39 Flit Id: 86 Channel: 1 Router 28 dest: 27
Time: 39 Flit Id: 102 Channel: 4 Router 28 dest: 28
Time: 39 Flit Id: 75 Channel: 0 Router 35 dest: 36
Time: 39 Flit Id: 94 Channel: 3 Router 35 dest: 27
Time: 39 Flit Id: 128 Channel: 3 Router 36 dest: 28
Time: 39 Flit Id: 26 Channel: 4 Router 36 dest: 36
Time: 40 Flit Id: 93 Channel: 4 Router 27 dest: 27
Time: 40 Flit Id: 87 Channel: 1 Router 28 dest: 27
Time: 40 Flit Id: 122 Channel: 4 Router 28 dest: 28
Time: 40 Flit Id: 76 Channel: 0 Router 35 dest: 36
Time: 40 Flit Id: 107 Channel: 3 Router 35 dest: 27
Time: 40 Flit Id: 69 Channel: 4 Router 35 dest: 35
Time: 40 Flit Id: 77 Channel: 4 Router 36 dest: 36
Time: 41 Flit Id: 67 Channel: 2 Router 27 dest: 35
Time: 41 Flit Id: 111 Channel: 4 Router 27 dest: 27
Time: 41 Flit Id: 79 Channel: 4 Router 28 dest: 28
Time: 41 Flit Id: 47 Channel: 0 Router 35 dest: 36
Time: 41 Flit Id: 70 Channel: 4 Router 35 dest: 35
Time: 41 Flit Id: 158 Channel: 3 Router 36 dest: 28
Time: 41 Flit Id: 54 Channel: 4 Router 36 dest: 36
Time: 42 Flit Id: 56 Channel: 0 Router 27 dest: 36
Time: 42 Flit Id: 84 Channel: 4 Router 27 dest: 27
Time: 42 Flit Id: 73 Channel: 1 Router 28 dest: 35
Time: 42 Flit Id: 131 Channel: 4 Router 28 dest: 28
Time: 42 Flit Id: 103 Channel: 0 Router 35 dest: 36
Time: 42 Flit Id: 41 Channel: 4 Router 35 dest: 35
Time: 42 Flit Id: 110 Channel: 1 Router 36 dest: 27
Time: 43 Flit Id: 96 Channel: 0 Router 27 dest: 28
Time: 43 Flit Id: 106 Channel: 4 Router 27 dest: 27
Time: 43 Flit Id: 88 Channel: 1 Router 28 dest: 27
Time: 43 Flit Id: 78 Channel: 2 Router 28 dest: 36
Time: 43 Flit Id: 83 Channel: 4 Router 28 dest: 28
Time: 43 Flit Id: 119 Channel: 3 Router 35 dest: 27
Time: 43 Flit Id: 71 Channel: 4 Router 35 dest: 35
Time: 43 Flit Id: 159 Channel: 3 Router 36 dest: 28
Time: 43 Flit Id: 75 Channel: 4 Router 36 dest: 36
Time: 44 Flit Id: 134 Channel: 0 Router 27 dest: 28
Time: 44 Flit Id: 86 Channel: 4 Router 27 dest: 27
Time: 44 Flit Id: 113 Channel: 1 Router 28 dest: 35
Time: 44 Flit Id: 55 Channel: 2 Router 28 dest: 36
Time: 44 Flit Id: 124 Channel: 4 Router 28 dest: 28
Time: 44 Flit Id: 57 Channel: 0 Router 35 dest: 36
Time: 44 Flit Id: 120 Channel: 3 Router 35 dest: 27
Time: 44 Flit Id: 72 Channel: 4 Router 35 dest: 35
Time: 44 Flit Id: 76 Channel: 4 Router 36 dest: 36
Time: 45 Flit Id: 87 Channel: 4 Router 27 dest: 27
Time: 45 Flit Id: 116 Channel: 2 Router 28 dest: 35
Time: 45 Flit Id: 133 Channel: 4 Router 28 dest: 28
Time: 45 Flit Id: 109 Channel: 3 Router 35 dest: 27
Time: 45 Flit Id: 67 Channel: 4 Router 35 dest: 35
Time: 45 Flit Id: 112 Channel: 1 Router 36 dest: 27
Time: 45 Flit Id: 126 Channel: 3 Router 36 dest: 28
Time: 45 Flit Id: 47 Channel: 4 Router 36 dest: 36
Time: 46 Flit Id: 73 Channel: 2 Router 27 dest: 35
Time: 46 Flit Id: 94 Channel: 4 Router 27 dest: 27
Time: 46 Flit Id: 115 Channel: 2 Router 28 dest: 35
Time: 46 Flit Id: 127 Channel: 4 Router 28 dest: 28
Time: 46 Flit Id: 108 Channel: 3 Router 35 dest: 27
Time: 46 Flit Id: 129 Channel: 3 Router 36 dest: 28
Time: 46 Flit Id: 103 Channel: 4 Router 36 dest: 36
Time: 47 Flit Id: 137 Channel: 0 Router 27 dest: 28
Time: 47 Flit Id: 107 Channel: 4 Router 27 dest: 27
Time: 47 Flit Id: 68 Channel: 1 Router 28 dest: 35
Time: 47 Flit Id: 56 Channel: 2 Router 28 dest: 36
Time: 47 Flit Id: 159 Channel: 4 Router 28 dest: 28
Time: 47 Flit Id: 121 Channel: 3 Router 35 dest: 27
Time: 47 Flit Id: 78 Channel: 4 Router 36 dest: 36
Time: 48 Flit Id: 138 Channel: 0 Router 27 dest: 28
Time: 48 Flit Id: 113 Channel: 2 Router 27 dest: 35
Time: 48 Flit Id: 119 Channel: 4 Router 27 dest: 27
Time: 48 Flit Id: 117 Channel: 2 Router 28 dest: 35
Time: 48 Flit Id: 158 Channel: 4 Router 28 dest: 28
Time: 48 Flit Id: 104 Channel: 0 Router 35 dest: 36
Time: 48 Flit Id: 95 Channel: 3 Router 35 dest: 27
Time: 48 Flit Id: 57 Channel: 4 Router 36 dest: 36
Time: 49 Flit Id: 101 Channel: 0 Router 27 dest: 28
Time: 49 Flit Id: 178 Channel: 2 Router 27 dest: 35
Time: 49 Flit Id: 109 Channel: 4 Router 27 dest: 27
Time: 49 Flit Id: 152 Channel: 2 Router 28 dest: 36
Time: 49 Flit Id: 126 Channel: 4 Router 28 dest: 28
Time: 49 Flit Id: 116 Channel: 1 Router 36 dest: 35
Time: 49 Flit Id: 163 Channel: 3 Router 36 dest: 28
Time: 49 Flit Id: 55 Channel: 4 Router 36 dest: 36
Time: 50 Flit Id: 132 Channel: 0 Router 27 dest: 28
Time: 50 Flit Id: 108 Channel: 4 Router 27 dest: 27
Time: 50 Flit Id: 153 Channel: 2 Router 28 dest: 36
Time: 50 Flit Id: 134 Channel: 4 Router 28 dest: 28
Time: 50 Flit Id: 73 Channel: 4 Router 35 dest: 35
Time: 50 Flit Id: 186 Channel: 1 Router 36 dest: 27
Time: 51 Flit Id: 68 Channel: 2 Router 27 dest: 35
Time: 51 Flit Id: 121 Channel: 4 Router 27 dest: 27
Time: 51 Flit Id: 118 Channel: 1 Router 28 dest: 35
Time: 51 Flit Id: 128 Channel: 4 Router 28 dest: 28
Time: 51 Flit Id: 140 Channel: 0 Router 35 dest: 28
Time: 51 Flit Id: 139 Channel: 3 Router 35 dest: 28
Time: 51 Flit Id: 115 Channel: 1 Router 36 dest: 35
Time: 51 Flit Id: 161 Channel: 3 Router 36 dest: 28
Time: 51 Flit Id: 56 Channel: 4 Router 36 dest: 36
Time: 52 Flit Id: 179 Channel: 2 Router 27 dest: 35
Time: 52 Flit Id: 95 Channel: 4 Router 27 dest: 27
Time: 52 Flit Id: 154 Channel: 2 Router 28 dest: 36
Time: 52 Flit Id: 125 Channel: 4 Router 28 dest: 28
Time: 52 Flit Id: 110 Channel: 3 Router 35 dest: 27
Time: 52 Flit Id: 113 Channel: 4 Router 35 dest: 35
Time: 52 Flit Id: 188 Channel: 1 Router 36 dest: 27
Time: 52 Flit Id: 81 Channel: 3 Router 36 dest: 28
Time: 53 Flit Id: 130 Channel: 0 Router 27 dest: 28
Time: 53 Flit Id: 180 Channel: 2 Router 27 dest: 35
Time: 53 Flit Id: 120 Channel: 4 Router 27 dest: 27
Time: 53 Flit Id: 114 Channel: 1 Router 28 dest: 35
Time: 53 Flit Id: 129 Channel: 4 Router 28 dest: 28
Time: 53 Flit Id: 142 Channel: 3 Router 35 dest: 28
Time: 53 Flit Id: 116 Channel: 4 Router 35 dest: 35
Time: 53 Flit Id: 117 Channel: 1 Router 36 dest: 35
Time: 53 Flit Id: 187 Channel: 3 Router 36 dest: 27
Time: 53 Flit Id: 104 Channel: 4 Router 36 dest: 36
Time: 54 Flit Id: 88 Channel: 4 Router 27 dest: 27
Time: 54 Flit Id: 155 Channel: 1 Router 28 dest: 27
Time: 54 Flit Id: 163 Channel: 4 Router 28 dest: 28
Time: 54 Flit Id: 112 Channel: 3 Router 35 dest: 27
Time: 54 Flit Id: 178 Channel: 4 Router 35 dest: 35
Time: 54 Flit Id: 160 Channel: 3 Router 36 dest: 28
Time: 54 Flit Id: 153 Channel: 4 Router 36 dest: 36
Time: 55 Flit Id: 139 Channel: 0 Router 27 dest: 28
Time: 55 Flit Id: 181 Channel: 2 Router 27 dest: 35
Time: 55 Flit Id: 156 Channel: 1 Router 28 dest: 27
Time: 55 Flit Id: 161 Channel: 4 Router 28 dest: 28
Time: 55 Flit Id: 115 Channel: 4 Router 35 dest: 35
Time: 55 Flit Id: 152 Channel: 4 Router 36 dest: 36
Time: 56 Flit Id: 182 Channel: 2 Router 27 dest: 35
Time: 56 Flit Id: 110 Channel: 4 Router 27 dest: 27
Time: 56 Flit Id: 85 Channel: 1 Router 28 dest: 27
Time: 56 Flit Id: 96 Channel: 4 Router 28 dest: 28
Time: 56 Flit Id: 143 Channel: 3 Router 35 dest: 28
Time: 56 Flit Id: 68 Channel: 4 Router 35 dest: 35
Time: 56 Flit Id: 162 Channel: 3 Router 36 dest: 28
Time: 56 Flit Id: 154 Channel: 4 Router 36 dest: 36
Time: 57 Flit Id: 142 Channel: 0 Router 27 dest: 28
Time: 57 Flit Id: 183 Channel: 2 Router 27 dest: 35
Time: 57 Flit Id: 157 Channel: 1 Router 28 dest: 27
Time: 57 Flit Id: 130 Channel: 4 Router 28 dest: 28
Time: 57 Flit Id: 146 Channel: 0 Router 35 dest: 28
Time: 57 Flit Id: 186 Channel: 3 Router 35 dest: 27
Time: 57 Flit Id: 179 Channel: 4 Router 35 dest: 35
Time: 57 Flit Id: 190 Channel: 3 Router 36 dest: 27
Time: 58 Flit Id: 184 Channel: 2 Router 27 dest: 35
Time: 58 Flit Id: 155 Channel: 4 Router 27 dest: 27
Time: 58 Flit Id: 169 Channel: 1 Router 28 dest: 27
Time: 58 Flit Id: 81 Channel: 4 Router 28 dest: 28
Time: 58 Flit Id: 188 Channel: 3 Router 35 dest: 27
Time: 58 Flit Id: 117 Channel: 4 Router 35 dest: 35
Time: 58 Flit Id: 231 Channel: 1 Router 36 dest: 27
Time: 58 Flit Id: 82 Channel: 3 Router 36 dest: 28
Time: 59 Flit Id: 191 Channel: 2 Router 27 dest: 36
Time: 59 Flit Id: 156 Channel: 4 Router 27 dest: 27
Time: 59 Flit Id: 171 Channel: 1 Router 28 dest: 27
Time: 59 Flit Id: 160 Channel: 4 Router 28 dest: 28
Time: 59 Flit Id: 148 Channel: 3 Router 35 dest: 28
Time: 59 Flit Id: 180 Channel: 4 Router 35 dest: 35
Time: 59 Flit Id: 240 Channel: 1 Router 36 dest: 35
Time: 59 Flit Id: 232 Channel: 3 Router 36 dest: 27
Time: 60 Flit Id: 85 Channel: 4 Router 27 dest: 27
Time: 60 Flit Id: 132 Channel: 4 Router 28 dest: 28
Time: 60 Flit Id: 144 Channel: 3 Router 35 dest: 28
Time: 60 Flit Id: 182 Channel: 4 Router 35 dest: 35
Time: 60 Flit Id: 230 Channel: 1 Router 36 dest: 27
Time: 60 Flit Id: 80 Channel: 3 Router 36 dest: 28
Time: 61 Flit Id: 193 Channel: 0 Router 27 dest: 36
Time: 61 Flit Id: 157 Channel: 4 Router 27 dest: 27
Time: 61 Flit Id: 101 Channel: 4 Router 28 dest: 28
Time: 61 Flit Id: 181 Channel: 4 Router 35 dest: 35
Time: 62 Flit Id: 185 Channel: 2 Router 27 dest: 35
Time: 62 Flit Id: 169 Channel: 4 Router 27 dest: 27
Time: 62 Flit Id: 137 Channel: 4 Router 28 dest: 28
Time: 62 Flit Id: 231 Channel: 3 Router 35 dest: 27
Time: 62 Flit Id: 184 Channel: 4 Router 35 dest: 35
Time: 62 Flit Id: 189 Channel: 1 Router 36 dest: 27
Time: 63 Flit Id: 135 Channel: 0 Router 27 dest: 28
Time: 63 Flit Id: 192 Channel: 2 Router 27 dest: 36
Time: 63 Flit Id: 171 Channel: 4 Router 27 dest: 27
Time: 63 Flit Id: 176 Channel: 2 Router 28 dest: 36
Time: 63 Flit Id: 162 Channel: 4 Router 28 dest: 28
Time: 63 Flit Id: 149 Channel: 0 Router 35 dest: 28
Time: 63 Flit Id: 151 Channel: 3 Router 35 dest: 28
Time: 63 Flit Id: 183 Channel: 4 Router 35 dest: 35
Time: 63 Flit Id: 243 Channel: 1 Router 36 dest: 35
Time: 63 Flit Id: 140 Channel: 3 Router 36 dest: 28
Time: 64 Flit Id: 118 Channel: 2 Router 27 dest: 35
Time: 64 Flit Id: 112 Channel: 4 Router 27 dest: 27
Time: 64 Flit Id: 174 Channel: 1 Router 28 dest: 27
Time: 64 Flit Id: 177 Channel: 2 Router 28 dest: 36
Time: 64 Flit Id: 138 Channel: 4 Router 28 dest: 28
Time: 64 Flit Id: 191 Channel: 0 Router 35 dest: 36
Time: 64 Flit Id: 240 Channel: 4 Router 35 dest: 35
Time: 64 Flit Id: 241 Channel: 1 Router 36 dest: 35
Time: 65 Flit Id: 136 Channel: 0 Router 27 dest: 28
Time: 65 Flit Id: 195 Channel: 2 Router 27 dest: 36
Time: 65 Flit Id: 186 Channel: 4 Router 27 dest: 27
Time: 65 Flit Id: 175 Channel: 1 Router 28 dest: 27
Time: 65 Flit Id: 193 Channel: 2 Router 28 dest: 36
Time: 65 Flit Id: 139 Channel: 4 Router 28 dest: 28
Time: 65 Flit Id: 150 Channel: 0 Router 35 dest: 28
Time: 66 Flit Id: 196 Channel: 0 Router 27 dest: 36
Time: 66 Flit Id: 114 Channel: 2 Router 27 dest: 35
Time: 66 Flit Id: 188 Channel: 4 Router 27 dest: 27
Time: 66 Flit Id: 170 Channel: 1 Router 28 dest: 27
Time: 66 Flit Id: 80 Channel: 4 Router 28 dest: 28
Time: 66 Flit Id: 185 Channel: 4 Router 35 dest: 35
Time: 67 Flit Id: 151 Channel: 0 Router 27 dest: 28
Time: 67 Flit Id: 226 Channel: 2 Router 27 dest: 35
Time: 67 Flit Id: 231 Channel: 4 Router 27 dest: 27
Time: 67 Flit Id: 232 Channel: 1 Router 28 dest: 27
Time: 67 Flit Id: 135 Channel: 4 Router 28 dest: 28
Time: 67 Flit Id: 192 Channel: 0 Router 35 dest: 36
Time: 67 Flit Id: 243 Channel: 4 Router 35 dest: 35
Time: 67 Flit Id: 249 Channel: 1 Router 36 dest: 35
Time: 67 Flit Id: 176 Channel: 4 Router 36 dest: 36
Time: 68 Flit Id: 174 Channel: 4 Router 27 dest: 27
Time: 68 Flit Id: 168 Channel: 1 Router 28 dest: 27
Time: 68 Flit Id: 198 Channel: 2 Router 28 dest: 36
Time: 68 Flit Id: 142 Channel: 4 Router 28 dest: 28
Time: 68 Flit Id: 145 Channel: 0 Router 35 dest: 28
Time: 68 Flit Id: 241 Channel: 4 Router 35 dest: 35
Time: 68 Flit Id: 191 Channel: 4 Router 36 dest: 36
Time: 69 Flit Id: 143 Channel: 0 Router 27 dest: 28
Time: 69 Flit Id: 228 Channel: 2 Router 27 dest: 35
Time: 69 Flit Id: 175 Channel: 4 Router 27 dest: 27
Time: 69 Flit Id: 172 Channel: 1 Router 28 dest: 27
Time: 69 Flit Id: 199 Channel: 2 Router 28 dest: 36
Time: 69 Flit Id: 140 Channel: 4 Router 28 dest: 28
Time: 69 Flit Id: 195 Channel: 0 Router 35 dest: 36
Time: 69 Flit Id: 166 Channel: 3 Router 35 dest: 27
Time: 69 Flit Id: 118 Channel: 4 Router 35 dest: 35
Time: 69 Flit Id: 146 Channel: 3 Router 36 dest: 28
Time: 69 Flit Id: 177 Channel: 4 Router 36 dest: 36
Time: 70 Flit Id: 194 Channel: 0 Router 27 dest: 36
Time: 70 Flit Id: 170 Channel: 4 Router 27 dest: 27
Time: 70 Flit Id: 206 Channel: 2 Router 28 dest: 36
Time: 70 Flit Id: 82 Channel: 4 Router 28 dest: 28
Time: 70 Flit Id: 230 Channel: 3 Router 35 dest: 27
Time: 70 Flit Id: 114 Channel: 4 Router 35 dest: 35
Time: 70 Flit Id: 193 Channel: 4 Router 36 dest: 36
Time: 71 Flit Id: 148 Channel: 0 Router 27 dest: 28
Time: 71 Flit Id: 232 Channel: 4 Router 27 dest: 27
Time: 71 Flit Id: 196 Channel: 2 Router 28 dest: 36
Time: 71 Flit Id: 136 Channel: 4 Router 28 dest: 28
Time: 71 Flit Id: 200 Channel: 3 Router 35 dest: 27
Time: 71 Flit Id: 226 Channel: 4 Router 35 dest: 35
Time: 71 Flit Id: 298 Channel: 3 Router 36 dest: 28
Time: 71 Flit Id: 192 Channel: 4 Router 36 dest: 36
Time: 72 Flit Id: 197 Channel: 2 Router 27 dest: 36
Time: 72 Flit Id: 168 Channel: 4 Router 27 dest: 27
Time: 72 Flit Id: 207 Channel: 2 Router 28 dest: 36
Time: 72 Flit Id: 151 Channel: 4 Router 28 dest: 28
Time: 72 Flit Id: 167 Channel: 3 Router 35 dest: 27
Time: 72 Flit Id: 249 Channel: 4 Router 35 dest: 35
Time: 72 Flit Id: 198 Channel: 4 Router 36 dest: 36
Time: 73 Flit Id: 236 Channel: 0 Router 27 dest: 28
Time: 73 Flit Id: 172 Channel: 4 Router 27 dest: 27
Time: 73 Flit Id: 187 Channel: 1 Router 28 dest: 27
Time: 73 Flit Id: 209 Channel: 2 Router 28 dest: 36
Time: 73 Flit Id: 164 Channel: 3 Router 35 dest: 27
Time: 73 Flit Id: 228 Channel: 4 Router 35 dest: 35
Time: 73 Flit Id: 250 Channel: 1 Router 36 dest: 35
Time: 73 Flit Id: 195 Channel: 4 Router 36 dest: 36
Time: 74 Flit Id: 227 Channel: 2 Router 27 dest: 35
Time: 74 Flit Id: 166 Channel: 4 Router 27 dest: 27
Time: 74 Flit Id: 190 Channel: 1 Router 28 dest: 27
Time: 74 Flit Id: 210 Channel: 2 Router 28 dest: 36
Time: 74 Flit Id: 143 Channel: 4 Router 28 dest: 28
Time: 74 Flit Id: 147 Channel: 0 Router 35 dest: 28
Time: 74 Flit Id: 299 Channel: 3 Router 36 dest: 28
Time: 74 Flit Id: 199 Channel: 4 Router 36 dest: 36
Time: 75 Flit Id: 144 Channel: 0 Router 27 dest: 28
Time: 75 Flit Id: 230 Channel: 4 Router 27 dest: 27
Time: 75 Flit Id: 211 Channel: 2 Router 28 dest: 36
Time: 75 Flit Id: 146 Channel: 4 Router 28 dest: 28
Time: 75 Flit Id: 201 Channel: 3 Router 35 dest: 27
Time: 75 Flit Id: 242 Channel: 1 Router 36 dest: 35
Time: 75 Flit Id: 150 Channel: 3 Router 36 dest: 28
Time: 75 Flit Id: 196 Channel: 4 Router 36 dest: 36
Time: 76 Flit Id: 237 Channel: 0 Router 27 dest: 28
Time: 76 Flit Id: 200 Channel: 4 Router 27 dest: 27
Time: 76 Flit Id: 173 Channel: 1 Router 28 dest: 27
Time: 76 Flit Id: 298 Channel: 4 Router 28 dest: 28
Time: 76 Flit Id: 197 Channel: 0 Router 35 dest: 36
Time: 76 Flit Id: 165 Channel: 3 Router 35 dest: 27
Time: 76 Flit Id: 301 Channel: 3 Router 36 dest: 27
Time: 76 Flit Id: 206 Channel: 4 Router 36 dest: 36
Time: 77 Flit Id: 229 Channel: 2 Router 27 dest: 35
Time: 77 Flit Id: 167 Channel: 4 Router 27 dest: 27
Time: 77 Flit Id: 208 Channel: 2 Router 28 dest: 36
Time: 77 Flit Id: 148 Channel: 4 Router 28 dest: 28
Time: 77 Flit Id: 250 Channel: 4 Router 35 dest: 35
Time: 77 Flit Id: 233 Channel: 1 Router 36 dest: 27
Time: 77 Flit Id: 207 Channel: 4 Router 36 dest: 36
Time: 78 Flit Id: 235 Channel: 0 Router 27 dest: 28
Time: 78 Flit Id: 251 Channel: 2 Router 27 dest: 35
Time: 78 Flit Id: 187 Channel: 4 Router 27 dest: 27
Time: 78 Flit Id: 299 Channel: 4 Router 28 dest: 28
Time: 78 Flit Id: 227 Channel: 4 Router 35 dest: 35
Time: 78 Flit Id: 302 Channel: 3 Router 36 dest: 27
Time: 78 Flit Id: 210 Channel: 4 Router 36 dest: 36
Time: 79 Flit Id: 238 Channel: 0 Router 27 dest: 28
Time: 79 Flit Id: 164 Channel: 4 Router 27 dest: 27
Time: 79 Flit Id: 215 Channel: 1 Router 28 dest: 35
Time: 79 Flit Id: 194 Channel: 2 Router 28 dest: 36
Time: 79 Flit Id: 236 Channel: 4 Router 28 dest: 28
Time: 79 Flit Id: 242 Channel: 4 Router 35 dest: 35
Time: 79 Flit Id: 303 Channel: 3 Router 36 dest: 27
Time: 79 Flit Id: 209 Channel: 4 Router 36 dest: 36
Time: 80 Flit Id: 239 Channel: 0 Router 27 dest: 28
Time: 80 Flit Id: 190 Channel: 4 Router 27 dest: 27
Time: 80 Flit Id: 301 Channel: 1 Router 28 dest: 27
Time: 80 Flit Id: 212 Channel: 2 Router 28 dest: 36
Time: 80 Flit Id: 144 Channel: 4 Router 28 dest: 28
Time: 80 Flit Id: 221 Channel: 0 Router 35 dest: 28
Time: 80 Flit Id: 189 Channel: 3 Router 35 dest: 27
Time: 80 Flit Id: 149 Channel: 3 Router 36 dest: 28
Time: 81 Flit Id: 253 Channel: 2 Router 27 dest: 35
Time: 81 Flit Id: 173 Channel: 4 Router 27 dest: 27
Time: 81 Flit Id: 217 Channel: 1 Router 28 dest: 35
Time: 81 Flit Id: 150 Channel: 4 Router 28 dest: 28
Time: 81 Flit Id: 233 Channel: 3 Router 35 dest: 27
Time: 81 Flit Id: 229 Channel: 4 Router 35 dest: 35
Time: 81 Flit Id: 300 Channel: 3 Router 36 dest: 28
Time: 81 Flit Id: 211 Channel: 4 Router 36 dest: 36
Time: 82 Flit Id: 252 Channel: 2 Router 27 dest: 35
Time: 82 Flit Id: 201 Channel: 4 Router 27 dest: 27
Time: 82 Flit Id: 218 Channel: 1 Router 28 dest: 35
Time: 82 Flit Id: 214 Channel: 2 Router 28 dest: 35
Time: 82 Flit Id: 237 Channel: 4 Router 28 dest: 28
Time: 82 Flit Id: 203 Channel: 3 Router 35 dest: 27
Time: 82 Flit Id: 251 Channel: 4 Router 35 dest: 35
Time: 82 Flit Id: 365 Channel: 1 Router 36 dest: 35
Time: 82 Flit Id: 197 Channel: 4 Router 36 dest: 36
Time: 83 Flit Id: 234 Channel: 0 Router 27 dest: 28
Time: 83 Flit Id: 215 Channel: 2 Router 27 dest: 35
Time: 83 Flit Id: 165 Channel: 4 Router 27 dest: 27
Time: 83 Flit Id: 302 Channel: 1 Router 28 dest: 27
Time: 83 Flit Id: 219 Channel: 2 Router 28 dest: 35
Time: 83 Flit Id: 235 Channel: 4 Router 28 dest: 28
Time: 83 Flit Id: 141 Channel: 3 Router 35 dest: 28
Time: 83 Flit Id: 147 Channel: 3 Router 36 dest: 28
Time: 83 Flit Id: 194 Channel: 4 Router 36 dest: 36
Time: 84 Flit Id: 266 Channel: 0 Router 27 dest: 28
Time: 84 Flit Id: 301 Channel: 4 Router 27 dest: 27
Time: 84 Flit Id: 216 Channel: 2 Router 28 dest: 35
Time: 84 Flit Id: 149 Channel: 4 Router 28 dest: 28
Time: 84 Flit Id: 222 Channel: 3 Router 35 dest: 28
Time: 84 Flit Id: 367 Channel: 1 Router 36 dest: 35
Time: 84 Flit Id: 212 Channel: 4 Router 36 dest: 36
Time: 85 Flit Id: 267 Channel: 0 Router 27 dest: 28
Time: 85 Flit Id: 217 Channel: 2 Router 27 dest: 35
Time: 85 Flit Id: 189 Channel: 4 Router 27 dest: 27
Time: 85 Flit Id: 246 Channel: 1 Router 28 dest: 27
Time: 85 Flit Id: 300 Channel: 4 Router 28 dest: 28
Time: 85 Flit Id: 223 Channel: 0 Router 35 dest: 28
Time: 85 Flit Id: 205 Channel: 3 Router 35 dest: 27
Time: 85 Flit Id: 253 Channel: 4 Router 35 dest: 35
Time: 85 Flit Id: 244 Channel: 1 Router 36 dest: 35
Time: 85 Flit Id: 208 Channel: 4 Router 36 dest: 36
Time: 86 Flit Id: 254 Channel: 2 Router 27 dest: 35
Time: 86 Flit Id: 233 Channel: 4 Router 27 dest: 27
Time: 86 Flit Id: 247 Channel: 1 Router 28 dest: 27
Time: 86 Flit Id: 239 Channel: 4 Router 28 dest: 28
Time: 86 Flit Id: 252 Channel: 4 Router 35 dest: 35
Time: 86 Flit Id: 214 Channel: 1 Router 36 dest: 35
Time: 86 Flit Id: 145 Channel: 3 Router 36 dest: 28
Time: 87 Flit Id: 270 Channel: 0 Router 27 dest: 28
Time: 87 Flit Id: 218 Channel: 2 Router 27 dest: 35
Time: 87 Flit Id: 245 Channel: 1 Router 28 dest: 27
Time: 87 Flit Id: 238 Channel: 4 Router 28 dest: 28
Time: 87 Flit Id: 202 Channel: 3 Router 35 dest: 27
Time: 87 Flit Id: 365 Channel: 4 Router 35 dest: 35
Time: 87 Flit Id: 248 Channel: 1 Router 36 dest: 35
Time: 88 Flit Id: 269 Channel: 0 Router 27 dest: 28
Time: 88 Flit Id: 203 Channel: 4 Router 27 dest: 27
Time: 88 Flit Id: 255 Channel: 1 Router 28 dest: 27
Time: 88 Flit Id: 147 Channel: 4 Router 28 dest: 28
Time: 88 Flit Id: 224 Channel: 3 Router 35 dest: 28
Time: 88 Flit Id: 215 Channel: 4 Router 35 dest: 35
Time: 88 Flit Id: 370 Channel: 1 Router 36 dest: 35
Time: 89 Flit Id: 302 Channel: 4 Router 27 dest: 27
Time: 89 Flit Id: 303 Channel: 1 Router 28 dest: 27
Time: 89 Flit Id: 266 Channel: 4 Router 28 dest: 28
Time: 89 Flit Id: 217 Channel: 4 Router 35 dest: 35
Time: 89 Flit Id: 369 Channel: 1 Router 36 dest: 35
Time: 89 Flit Id: 221 Channel: 3 Router 36 dest: 28
Time: 90 Flit Id: 273 Channel: 0 Router 27 dest: 28
Time: 90 Flit Id: 246 Channel: 4 Router 27 dest: 27
Time: 90 Flit Id: 213 Channel: 2 Router 28 dest: 35
Time: 90 Flit Id: 234 Channel: 4 Router 28 dest: 28
Time: 90 Flit Id: 288 Channel: 0 Router 35 dest: 36
Time: 90 Flit Id: 367 Channel: 4 Router 35 dest: 35
Time: 90 Flit Id: 371 Channel: 1 Router 36 dest: 35
Time: 90 Flit Id: 223 Channel: 3 Router 36 dest: 28
Time: 91 Flit Id: 274 Channel: 0 Router 27 dest: 28
Time: 91 Flit Id: 205 Channel: 4 Router 27 dest: 27
Time: 91 Flit Id: 256 Channel: 1 Router 28 dest: 27
Time: 91 Flit Id: 267 Channel: 4 Router 28 dest: 28
Time: 91 Flit Id: 289 Channel: 0 Router 35 dest: 36
Time: 91 Flit Id: 254 Channel: 4 Router 35 dest: 35
Time: 92 Flit Id: 271 Channel: 0 Router 27 dest: 28
Time: 92 Flit Id: 279 Channel: 2 Router 27 dest: 35
Time: 92 Flit Id: 245 Channel: 4 Router 27 dest: 27
Time: 92 Flit Id: 258 Channel: 1 Router 28 dest: 27
Time: 92 Flit Id: 145 Channel: 4 Router 28 dest: 28
Time: 92 Flit Id: 290 Channel: 0 Router 35 dest: 36
Time: 92 Flit Id: 244 Channel: 4 Router 35 dest: 35
Time: 92 Flit Id: 372 Channel: 1 Router 36 dest: 35
Time: 93 Flit Id: 280 Channel: 2 Router 27 dest: 35
Time: 93 Flit Id: 202 Channel: 4 Router 27 dest: 27
Time: 93 Flit Id: 261 Channel: 2 Router 28 dest: 35
Time: 93 Flit Id: 221 Channel: 4 Router 28 dest: 28
Time: 93 Flit Id: 218 Channel: 4 Router 35 dest: 35
Time: 94 Flit Id: 281 Channel: 2 Router 27 dest: 35
Time: 94 Flit Id: 255 Channel: 4 Router 27 dest: 27
Time: 94 Flit Id: 257 Channel: 1 Router 28 dest: 27
Time: 94 Flit Id: 269 Channel: 4 Router 28 dest: 28
Time: 94 Flit Id: 315 Channel: 0 Router 35 dest: 36
Time: 94 Flit Id: 248 Channel: 4 Router 35 dest: 35
Time: 94 Flit Id: 288 Channel: 4 Router 36 dest: 36
Time: 95 Flit Id: 222 Channel: 0 Router 27 dest: 28
Time: 95 Flit Id: 247 Channel: 4 Router 27 dest: 27
Time: 95 Flit Id: 263 Channel: 1 Router 28 dest: 35
Time: 95 Flit Id: 223 Channel: 4 Router 28 dest: 28
Time: 95 Flit Id: 316 Channel: 0 Router 35 dest: 36
Time: 95 Flit Id: 369 Channel: 4 Router 35 dest: 35
Time: 95 Flit Id: 373 Channel: 1 Router 36 dest: 35
Time: 95 Flit Id: 289 Channel: 4 Router 36 dest: 36
Time: 96 Flit Id: 305 Channel: 0 Router 27 dest: 28
Time: 96 Flit Id: 256 Channel: 4 Router 27 dest: 27
Time: 96 Flit Id: 270 Channel: 4 Router 28 dest: 28
Time: 96 Flit Id: 279 Channel: 4 Router 35 dest: 35
Time: 96 Flit Id: 290 Channel: 4 Router 36 dest: 36
Time: 97 Flit Id: 268 Channel: 0 Router 27 dest: 28
Time: 97 Flit Id: 306 Channel: 2 Router 27 dest: 35
Time: 97 Flit Id: 303 Channel: 4 Router 27 dest: 27
Time: 97 Flit Id: 259 Channel: 1 Router 28 dest: 27
Time: 97 Flit Id: 273 Channel: 4 Router 28 dest: 28
Time: 97 Flit Id: 372 Channel: 4 Router 35 dest: 35
Time: 97 Flit Id: 374 Channel: 1 Router 36 dest: 35
Time: 98 Flit Id: 307 Channel: 2 Router 27 dest: 35
Time: 98 Flit Id: 257 Channel: 4 Router 27 dest: 27
Time: 98 Flit Id: 274 Channel: 4 Router 28 dest: 28
Time: 98 Flit Id: 204 Channel: 3 Router 35 dest: 27
Time: 98 Flit Id: 370 Channel: 4 Router 35 dest: 35
Time: 98 Flit Id: 315 Channel: 4 Router 36 dest: 36
Time: 99 Flit Id: 141 Channel: 0 Router 27 dest: 28
Time: 99 Flit Id: 263 Channel: 2 Router 27 dest: 35
Time: 99 Flit Id: 258 Channel: 4 Router 27 dest: 27
Time: 99 Flit Id: 275 Channel: 1 Router 28 dest: 35
Time: 99 Flit Id: 271 Channel: 4 Router 28 dest: 28
Time: 99 Flit Id: 317 Channel: 0 Router 35 dest: 36
Time: 99 Flit Id: 373 Channel: 4 Router 35 dest: 35
Time: 99 Flit Id: 366 Channel: 1 Router 36 dest: 35
Time: 99 Flit Id: 316 Channel: 4 Router 36 dest: 36
Time: 100 Flit Id: 309 Channel: 2 Router 27 dest: 35
Time: 100 Flit Id: 260 Channel: 1 Router 28 dest: 27
Time: 100 Flit Id: 305 Channel: 4 Router 28 dest: 28
Time: 100 Flit Id: 326 Channel: 3 Router 35 dest: 27
Time: 100 Flit Id: 214 Channel: 4 Router 35 dest: 35
Time: 100 Flit Id: 219 Channel: 1 Router 36 dest: 35
Time: 101 Flit Id: 310 Channel: 2 Router 27 dest: 35
Time: 101 Flit Id: 259 Channel: 4 Router 27 dest: 27
Time: 101 Flit Id: 277 Channel: 1 Router 28 dest: 35
Time: 101 Flit Id: 222 Channel: 4 Router 28 dest: 28
Time: 101 Flit Id: 306 Channel: 4 Router 35 dest: 35
Time: 102 Flit Id: 204 Channel: 4 Router 27 dest: 27
Time: 102 Flit Id: 268 Channel: 4 Router 28 dest: 28
Time: 102 Flit Id: 371 Channel: 4 Router 35 dest: 35
Time: 102 Flit Id: 379 Channel: 1 Router 36 dest: 35
Time: 102 Flit Id: 431 Channel: 3 Router 36 dest: 28
Time: 103 Flit Id: 312 Channel: 2 Router 27 dest: 35
Time: 103 Flit Id: 141 Channel: 4 Router 28 dest: 28
Time: 103 Flit Id: 280 Channel: 4 Router 35 dest: 35
Time: 103 Flit Id: 213 Channel: 1 Router 36 dest: 35
Time: 103 Flit Id: 317 Channel: 4 Router 36 dest: 36
Time: 104 Flit Id: 224 Channel: 0 Router 27 dest: 28
Time: 104 Flit Id: 260 Channel: 4 Router 27 dest: 27
Time: 104 Flit Id: 278 Channel: 1 Router 28 dest: 35
Time: 104 Flit Id: 325 Channel: 3 Router 35 dest: 27
Time: 104 Flit Id: 307 Channel: 4 Router 35 dest: 35
Time: 104 Flit Id: 432 Channel: 3 Router 36 dest: 28
Time: 105 Flit Id: 326 Channel: 4 Router 27 dest: 27
Time: 105 Flit Id: 284 Channel: 2 Router 28 dest: 35
Time: 105 Flit Id: 329 Channel: 3 Router 35 dest: 27
Time: 105 Flit Id: 219 Channel: 4 Router 35 dest: 35
Time: 105 Flit Id: 375 Channel: 1 Router 36 dest: 35
Time: 106 Flit Id: 272 Channel: 0 Router 27 dest: 28
Time: 106 Flit Id: 285 Channel: 1 Router 28 dest: 35
Time: 106 Flit Id: 431 Channel: 4 Router 28 dest: 28
Time: 106 Flit Id: 281 Channel: 4 Router 35 dest: 35
Time: 106 Flit Id: 216 Channel: 1 Router 36 dest: 35
Time: 107 Flit Id: 304 Channel: 0 Router 27 dest: 28
Time: 107 Flit Id: 220 Channel: 3 Router 35 dest: 28
Time: 107 Flit Id: 379 Channel: 4 Router 35 dest: 35
Time: 107 Flit Id: 376 Channel: 1 Router 36 dest: 35
Time: 107 Flit Id: 433 Channel: 3 Router 36 dest: 28
Time: 108 Flit Id: 308 Channel: 2 Router 27 dest: 35
Time: 108 Flit Id: 325 Channel: 4 Router 27 dest: 27
Time: 108 Flit Id: 283 Channel: 2 Router 28 dest: 35
Time: 108 Flit Id: 224 Channel: 4 Router 28 dest: 28
Time: 108 Flit Id: 263 Channel: 4 Router 35 dest: 35
Time: 108 Flit Id: 434 Channel: 3 Router 36 dest: 28
Time: 109 Flit Id: 318 Channel: 0 Router 27 dest: 28
Time: 109 Flit Id: 329 Channel: 4 Router 27 dest: 27
Time: 109 Flit Id: 432 Channel: 4 Router 28 dest: 28
Time: 109 Flit Id: 327 Channel: 3 Router 35 dest: 27
Time: 109 Flit Id: 312 Channel: 4 Router 35 dest: 35
Time: 109 Flit Id: 435 Channel: 3 Router 36 dest: 28
Time: 110 Flit Id: 272 Channel: 4 Router 28 dest: 28
Time: 110 Flit Id: 225 Channel: 3 Router 35 dest: 28
Time: 110 Flit Id: 309 Channel: 4 Router 35 dest: 35
Time: 110 Flit Id: 261 Channel: 1 Router 36 dest: 35
Time: 110 Flit Id: 436 Channel: 3 Router 36 dest: 28
Time: 111 Flit Id: 311 Channel: 2 Router 27 dest: 35
Time: 111 Flit Id: 265 Channel: 2 Router 28 dest: 35
Time: 111 Flit Id: 304 Channel: 4 Router 28 dest: 28
Time: 111 Flit Id: 331 Channel: 3 Router 35 dest: 27
Time: 111 Flit Id: 310 Channel: 4 Router 35 dest: 35
Time: 112 Flit Id: 320 Channel: 0 Router 27 dest: 28
Time: 112 Flit Id: 433 Channel: 4 Router 28 dest: 28
Time: 112 Flit Id: 333 Channel: 3 Router 35 dest: 27
Time: 112 Flit Id: 374 Channel: 4 Router 35 dest: 35
Time: 112 Flit Id: 368 Channel: 1 Router 36 dest: 35
Time: 112 Flit Id: 437 Channel: 3 Router 36 dest: 28
Time: 113 Flit Id: 322 Channel: 0 Router 27 dest: 28
Time: 113 Flit Id: 314 Channel: 2 Router 27 dest: 35
Time: 113 Flit Id: 327 Channel: 4 Router 27 dest: 27
Time: 113 Flit Id: 435 Channel: 4 Router 28 dest: 28
Time: 113 Flit Id: 328 Channel: 3 Router 35 dest: 27
Time: 113 Flit Id: 213 Channel: 4 Router 35 dest: 35
Time: 114 Flit Id: 321 Channel: 0 Router 27 dest: 28
Time: 114 Flit Id: 434 Channel: 4 Router 28 dest: 28
Time: 114 Flit Id: 366 Channel: 4 Router 35 dest: 35
Time: 114 Flit Id: 439 Channel: 3 Router 36 dest: 28
Time: 115 Flit Id: 323 Channel: 0 Router 27 dest: 28
Time: 115 Flit Id: 313 Channel: 2 Router 27 dest: 35
Time: 115 Flit Id: 331 Channel: 4 Router 27 dest: 27
Time: 115 Flit Id: 264 Channel: 2 Router 28 dest: 35
Time: 115 Flit Id: 436 Channel: 4 Router 28 dest: 28
Time: 115 Flit Id: 340 Channel: 0 Router 35 dest: 28
Time: 115 Flit Id: 261 Channel: 4 Router 35 dest: 35
Time: 115 Flit Id: 440 Channel: 3 Router 36 dest: 28
Time: 116 Flit Id: 225 Channel: 0 Router 27 dest: 28
Time: 116 Flit Id: 437 Channel: 4 Router 28 dest: 28
Time: 116 Flit Id: 375 Channel: 4 Router 35 dest: 35
Time: 116 Flit Id: 441 Channel: 3 Router 36 dest: 28
Time: 117 Flit Id: 324 Channel: 0 Router 27 dest: 28
Time: 117 Flit Id: 328 Channel: 4 Router 27 dest: 27
Time: 117 Flit Id: 320 Channel: 4 Router 28 dest: 28
Time: 117 Flit Id: 342 Channel: 0 Router 35 dest: 28
Time: 117 Flit Id: 368 Channel: 4 Router 35 dest: 35
Time: 117 Flit Id: 378 Channel: 1 Router 36 dest: 35
Time: 118 Flit Id: 319 Channel: 0 Router 27 dest: 28
Time: 118 Flit Id: 333 Channel: 4 Router 27 dest: 27
Time: 118 Flit Id: 439 Channel: 4 Router 28 dest: 28
Time: 118 Flit Id: 343 Channel: 0 Router 35 dest: 36
Time: 118 Flit Id: 341 Channel: 3 Router 35 dest: 28
Time: 118 Flit Id: 216 Channel: 4 Router 35 dest: 35
Time: 118 Flit Id: 265 Channel: 1 Router 36 dest: 35
Time: 118 Flit Id: 438 Channel: 3 Router 36 dest: 28
Time: 119 Flit Id: 440 Channel: 4 Router 28 dest: 28
Time: 119 Flit Id: 376 Channel: 4 Router 35 dest: 35
Time: 119 Flit Id: 340 Channel: 3 Router 36 dest: 28
Time: 120 Flit Id: 348 Channel: 2 Router 27 dest: 35
Time: 120 Flit Id: 441 Channel: 4 Router 28 dest: 28
Time: 120 Flit Id: 344 Channel: 0 Router 35 dest: 36
Time: 120 Flit Id: 308 Channel: 4 Router 35 dest: 35
Time: 120 Flit Id: 377 Channel: 1 Router 36 dest: 35
Time: 120 Flit Id: 471 Channel: 3 Router 36 dest: 28
Time: 121 Flit Id: 349 Channel: 2 Router 27 dest: 35
Time: 121 Flit Id: 322 Channel: 4 Router 28 dest: 28
Time: 121 Flit Id: 332 Channel: 3 Router 35 dest: 27
Time: 121 Flit Id: 311 Channel: 4 Router 35 dest: 35
Time: 121 Flit Id: 342 Channel: 3 Router 36 dest: 28
Time: 122 Flit Id: 438 Channel: 4 Router 28 dest: 28
Time: 122 Flit Id: 352 Channel: 3 Router 35 dest: 27
Time: 122 Flit Id: 265 Channel: 4 Router 35 dest: 35
Time: 122 Flit Id: 468 Channel: 3 Router 36 dest: 28
Time: 122 Flit Id: 343 Channel: 4 Router 36 dest: 36
Time: 123 Flit Id: 351 Channel: 2 Router 27 dest: 35
Time: 123 Flit Id: 286 Channel: 2 Router 28 dest: 35
Time: 123 Flit Id: 323 Channel: 4 Router 28 dest: 28
Time: 123 Flit Id: 314 Channel: 4 Router 35 dest: 35
Time: 123 Flit Id: 284 Channel: 1 Router 36 dest: 35
Time: 123 Flit Id: 472 Channel: 3 Router 36 dest: 28
Time: 124 Flit Id: 388 Channel: 0 Router 27 dest: 28
Time: 124 Flit Id: 340 Channel: 4 Router 28 dest: 28
Time: 124 Flit Id: 377 Channel: 4 Router 35 dest: 35
Time: 124 Flit Id: 283 Channel: 1 Router 36 dest: 35
Time: 124 Flit Id: 469 Channel: 3 Router 36 dest: 28
Time: 124 Flit Id: 344 Channel: 4 Router 36 dest: 36
Time: 125 Flit Id: 275 Channel: 2 Router 27 dest: 35
Time: 125 Flit Id: 332 Channel: 4 Router 27 dest: 27
Time: 125 Flit Id: 324 Channel: 4 Router 28 dest: 28
Time: 125 Flit Id: 355 Channel: 3 Router 35 dest: 27
Time: 125 Flit Id: 313 Channel: 4 Router 35 dest: 35
Time: 125 Flit Id: 539 Channel: 1 Router 36 dest: 35
Time: 125 Flit Id: 470 Channel: 3 Router 36 dest: 28
Time: 126 Flit Id: 389 Channel: 0 Router 27 dest: 28
Time: 126 Flit Id: 352 Channel: 4 Router 27 dest: 27
Time: 126 Flit Id: 468 Channel: 4 Router 28 dest: 28
Time: 126 Flit Id: 348 Channel: 4 Router 35 dest: 35
Time: 127 Flit Id: 347 Channel: 2 Router 27 dest: 35
Time: 127 Flit Id: 318 Channel: 4 Router 28 dest: 28
Time: 127 Flit Id: 357 Channel: 0 Router 35 dest: 28
Time: 127 Flit Id: 349 Channel: 4 Router 35 dest: 35
Time: 127 Flit Id: 540 Channel: 1 Router 36 dest: 35
Time: 127 Flit Id: 523 Channel: 3 Router 36 dest: 28
Time: 128 Flit Id: 350 Channel: 2 Router 27 dest: 35
Time: 128 Flit Id: 294 Channel: 2 Router 28 dest: 35
Time: 128 Flit Id: 388 Channel: 4 Router 28 dest: 28
Time: 128 Flit Id: 351 Channel: 4 Router 35 dest: 35
Time: 128 Flit Id: 541 Channel: 1 Router 36 dest: 35
Time: 129 Flit Id: 355 Channel: 4 Router 27 dest: 27
Time: 129 Flit Id: 262 Channel: 2 Router 28 dest: 35
Time: 129 Flit Id: 321 Channel: 4 Router 28 dest: 28
Time: 129 Flit Id: 378 Channel: 4 Router 35 dest: 35
Time: 129 Flit Id: 542 Channel: 1 Router 36 dest: 35
Time: 129 Flit Id: 524 Channel: 3 Router 36 dest: 28
Time: 130 Flit Id: 277 Channel: 2 Router 27 dest: 35
Time: 130 Flit Id: 291 Channel: 1 Router 28 dest: 35
Time: 130 Flit Id: 471 Channel: 4 Router 28 dest: 28
Time: 130 Flit Id: 282 Channel: 3 Router 35 dest: 27
Time: 130 Flit Id: 284 Channel: 4 Router 35 dest: 35
Time: 130 Flit Id: 264 Channel: 1 Router 36 dest: 35
Time: 131 Flit Id: 393 Channel: 0 Router 27 dest: 28
Time: 131 Flit Id: 319 Channel: 4 Router 28 dest: 28
Time: 131 Flit Id: 356 Channel: 3 Router 35 dest: 27
Time: 131 Flit Id: 539 Channel: 4 Router 35 dest: 35
Time: 132 Flit Id: 391 Channel: 0 Router 27 dest: 28
Time: 132 Flit Id: 523 Channel: 4 Router 28 dest: 28
Time: 132 Flit Id: 359 Channel: 0 Router 35 dest: 28
Time: 132 Flit Id: 540 Channel: 4 Router 35 dest: 35
Time: 133 Flit Id: 394 Channel: 0 Router 27 dest: 28
Time: 133 Flit Id: 402 Channel: 2 Router 27 dest: 36
Time: 133 Flit Id: 225 Channel: 4 Router 28 dest: 28
Time: 133 Flit Id: 541 Channel: 4 Router 35 dest: 35
Time: 134 Flit Id: 390 Channel: 0 Router 27 dest: 28
Time: 134 Flit Id: 282 Channel: 4 Router 27 dest: 27
Time: 134 Flit Id: 469 Channel: 4 Router 28 dest: 28
Time: 134 Flit Id: 542 Channel: 4 Router 35 dest: 35
Time: 134 Flit Id: 543 Channel: 1 Router 36 dest: 35
Time: 135 Flit Id: 356 Channel: 4 Router 27 dest: 27
Time: 135 Flit Id: 292 Channel: 1 Router 28 dest: 35
Time: 135 Flit Id: 276 Channel: 2 Router 28 dest: 35
Time: 135 Flit Id: 342 Channel: 4 Router 28 dest: 28
Time: 135 Flit Id: 395 Channel: 0 Router 35 dest: 28
Time: 135 Flit Id: 264 Channel: 4 Router 35 dest: 35
Time: 135 Flit Id: 262 Channel: 1 Router 36 dest: 35
Time: 135 Flit Id: 570 Channel: 3 Router 36 dest: 28
Time: 136 Flit Id: 392 Channel: 0 Router 27 dest: 28
Time: 136 Flit Id: 403 Channel: 2 Router 27 dest: 36
Time: 136 Flit Id: 389 Channel: 4 Router 28 dest: 28
Time: 136 Flit Id: 396 Channel: 0 Router 35 dest: 28
Time: 136 Flit Id: 283 Channel: 4 Router 35 dest: 35
Time: 137 Flit Id: 404 Channel: 0 Router 27 dest: 36
Time: 137 Flit Id: 524 Channel: 4 Router 28 dest: 28
Time: 137 Flit Id: 402 Channel: 0 Router 35 dest: 36
Time: 137 Flit Id: 544 Channel: 1 Router 36 dest: 35
Time: 137 Flit Id: 554 Channel: 3 Router 36 dest: 28
Time: 138 Flit Id: 220 Channel: 0 Router 27 dest: 28
Time: 138 Flit Id: 472 Channel: 4 Router 28 dest: 28
Time: 138 Flit Id: 275 Channel: 4 Router 35 dest: 35
Time: 139 Flit Id: 406 Channel: 2 Router 27 dest: 36
Time: 139 Flit Id: 570 Channel: 4 Router 28 dest: 28
Time: 139 Flit Id: 330 Channel: 3 Router 35 dest: 27
Time: 139 Flit Id: 347 Channel: 4 Router 35 dest: 35
Time: 139 Flit Id: 572 Channel: 3 Router 36 dest: 28
Time: 140 Flit Id: 293 Channel: 2 Router 28 dest: 35
Time: 140 Flit Id: 470 Channel: 4 Router 28 dest: 28
Time: 140 Flit Id: 403 Channel: 0 Router 35 dest: 36
Time: 140 Flit Id: 339 Channel: 3 Router 35 dest: 28
Time: 140 Flit Id: 262 Channel: 4 Router 35 dest: 35
Time: 140 Flit Id: 286 Channel: 1 Router 36 dest: 35
Time: 140 Flit Id: 395 Channel: 3 Router 36 dest: 28
Time: 141 Flit Id: 407 Channel: 0 Router 27 dest: 36
Time: 141 Flit Id: 336 Channel: 2 Router 28 dest: 36
Time: 141 Flit Id: 554 Channel: 4 Router 28 dest: 28
Time: 141 Flit Id: 544 Channel: 4 Router 35 dest: 35
Time: 141 Flit Id: 276 Channel: 1 Router 36 dest: 35
Time: 141 Flit Id: 573 Channel: 3 Router 36 dest: 28
Time: 141 Flit Id: 402 Channel: 4 Router 36 dest: 36
Time: 142 Flit Id: 425 Channel: 2 Router 27 dest: 36
Time: 142 Flit Id: 404 Channel: 2 Router 28 dest: 36
Time: 142 Flit Id: 350 Channel: 4 Router 35 dest: 35
Time: 142 Flit Id: 357 Channel: 3 Router 36 dest: 28
Time: 143 Flit Id: 292 Channel: 2 Router 27 dest: 35
Time: 143 Flit Id: 330 Channel: 4 Router 27 dest: 27
Time: 143 Flit Id: 572 Channel: 4 Router 28 dest: 28
Time: 143 Flit Id: 406 Channel: 0 Router 35 dest: 36
Time: 143 Flit Id: 399 Channel: 3 Router 35 dest: 28
Time: 143 Flit Id: 277 Channel: 4 Router 35 dest: 35
Time: 144 Flit Id: 426 Channel: 2 Router 27 dest: 36
Time: 144 Flit Id: 393 Channel: 4 Router 28 dest: 28
Time: 144 Flit Id: 543 Channel: 4 Router 35 dest: 35
Time: 144 Flit Id: 403 Channel: 4 Router 36 dest: 36
Time: 145 Flit Id: 291 Channel: 2 Router 27 dest: 35
Time: 145 Flit Id: 407 Channel: 2 Router 28 dest: 36
Time: 145 Flit Id: 400 Channel: 0 Router 35 dest: 28
Time: 145 Flit Id: 286 Channel: 4 Router 35 dest: 35
Time: 145 Flit Id: 545 Channel: 1 Router 36 dest: 35
Time: 145 Flit Id: 359 Channel: 3 Router 36 dest: 28
Time: 145 Flit Id: 336 Channel: 4 Router 36 dest: 36
Time: 146 Flit Id: 427 Channel: 2 Router 27 dest: 36
Time: 146 Flit Id: 287 Channel: 2 Router 28 dest: 35
Time: 146 Flit Id: 394 Channel: 4 Router 28 dest: 28
Time: 146 Flit Id: 425 Channel: 0 Router 35 dest: 36
Time: 146 Flit Id: 276 Channel: 4 Router 35 dest: 35
Time: 146 Flit Id: 294 Channel: 1 Router 36 dest: 35
Time: 146 Flit Id: 576 Channel: 3 Router 36 dest: 28
Time: 146 Flit Id: 404 Channel: 4 Router 36 dest: 36
Time: 147 Flit Id: 424 Channel: 0 Router 27 dest: 36
Time: 147 Flit Id: 278 Channel: 2 Router 27 dest: 35
Time: 147 Flit Id: 338 Channel: 2 Router 28 dest: 36
Time: 147 Flit Id: 573 Channel: 4 Router 28 dest: 28
Time: 147 Flit Id: 398 Channel: 0 Router 35 dest: 28
Time: 147 Flit Id: 292 Channel: 4 Router 35 dest: 35
Time: 147 Flit Id: 575 Channel: 3 Router 36 dest: 28
Time: 147 Flit Id: 406 Channel: 4 Router 36 dest: 36
Time: 148 Flit Id: 285 Channel: 2 Router 27 dest: 35
Time: 148 Flit Id: 296 Channel: 1 Router 28 dest: 35
Time: 148 Flit Id: 337 Channel: 2 Router 28 dest: 36
Time: 148 Flit Id: 391 Channel: 4 Router 28 dest: 28
Time: 148 Flit Id: 426 Channel: 0 Router 35 dest: 36
Time: 148 Flit Id: 358 Channel: 3 Router 35 dest: 28
Time: 148 Flit Id: 577 Channel: 3 Router 36 dest: 27
Time: 149 Flit Id: 430 Channel: 0 Router 27 dest: 36
Time: 149 Flit Id: 428 Channel: 2 Router 27 dest: 36
Time: 149 Flit Id: 390 Channel: 4 Router 28 dest: 28
Time: 149 Flit Id: 291 Channel: 4 Router 35 dest: 35
Time: 149 Flit Id: 407 Channel: 4 Router 36 dest: 36
Time: 150 Flit Id: 405 Channel: 0 Router 27 dest: 36
Time: 150 Flit Id: 297 Channel: 1 Router 28 dest: 35
Time: 150 Flit Id: 359 Channel: 4 Router 28 dest: 28
Time: 150 Flit Id: 408 Channel: 0 Router 35 dest: 36
Time: 150 Flit Id: 545 Channel: 4 Router 35 dest: 35
Time: 150 Flit Id: 293 Channel: 1 Router 36 dest: 35
Time: 150 Flit Id: 425 Channel: 4 Router 36 dest: 36
Time: 151 Flit Id: 429 Channel: 0 Router 27 dest: 36
Time: 151 Flit Id: 295 Channel: 2 Router 28 dest: 35
Time: 151 Flit Id: 392 Channel: 4 Router 28 dest: 28
Time: 151 Flit Id: 409 Channel: 0 Router 35 dest: 36
Time: 151 Flit Id: 294 Channel: 4 Router 35 dest: 35
Time: 151 Flit Id: 578 Channel: 1 Router 36 dest: 27
Time: 151 Flit Id: 579 Channel: 3 Router 36 dest: 27
Time: 151 Flit Id: 338 Channel: 4 Router 36 dest: 36
Time: 152 Flit Id: 345 Channel: 2 Router 27 dest: 35
Time: 152 Flit Id: 577 Channel: 1 Router 28 dest: 27
Time: 152 Flit Id: 424 Channel: 2 Router 28 dest: 36
Time: 152 Flit Id: 220 Channel: 4 Router 28 dest: 28
Time: 152 Flit Id: 410 Channel: 0 Router 35 dest: 36
Time: 152 Flit Id: 278 Channel: 4 Router 35 dest: 35
Time: 152 Flit Id: 580 Channel: 1 Router 36 dest: 27
Time: 152 Flit Id: 426 Channel: 4 Router 36 dest: 36
Time: 153 Flit Id: 358 Channel: 0 Router 27 dest: 28
Time: 153 Flit Id: 362 Channel: 1 Router 28 dest: 35
Time: 153 Flit Id: 430 Channel: 2 Router 28 dest: 36
Time: 153 Flit Id: 395 Channel: 4 Router 28 dest: 28
Time: 153 Flit Id: 285 Channel: 4 Router 35 dest: 35
Time: 153 Flit Id: 287 Channel: 1 Router 36 dest: 35
Time: 153 Flit Id: 337 Channel: 4 Router 36 dest: 36
Time: 154 Flit Id: 444 Channel: 0 Router 27 dest: 28
Time: 154 Flit Id: 296 Channel: 2 Router 27 dest: 35
Time: 154 Flit Id: 405 Channel: 2 Router 28 dest: 36
Time: 154 Flit Id: 357 Channel: 4 Router 28 dest: 28
Time: 154 Flit Id: 293 Channel: 4 Router 35 dest: 35
Time: 154 Flit Id: 581 Channel: 1 Router 36 dest: 27
Time: 154 Flit Id: 408 Channel: 4 Router 36 dest: 36
Time: 155 Flit Id: 579 Channel: 1 Router 28 dest: 27
Time: 155 Flit Id: 360 Channel: 2 Router 28 dest: 35
Time: 155 Flit Id: 575 Channel: 4 Router 28 dest: 28
Time: 155 Flit Id: 427 Channel: 0 Router 35 dest: 36
Time: 155 Flit Id: 578 Channel: 3 Router 35 dest: 27
Time: 155 Flit Id: 295 Channel: 1 Router 36 dest: 35
Time: 155 Flit Id: 400 Channel: 3 Router 36 dest: 28
Time: 155 Flit Id: 409 Channel: 4 Router 36 dest: 36
Time: 156 Flit Id: 399 Channel: 0 Router 27 dest: 28
Time: 156 Flit Id: 577 Channel: 4 Router 27 dest: 27
Time: 156 Flit Id: 429 Channel: 2 Router 28 dest: 36
Time: 156 Flit Id: 576 Channel: 4 Router 28 dest: 28
Time: 156 Flit Id: 580 Channel: 3 Router 35 dest: 27
Time: 156 Flit Id: 345 Channel: 4 Router 35 dest: 35
Time: 156 Flit Id: 582 Channel: 3 Router 36 dest: 27
Time: 156 Flit Id: 424 Channel: 4 Router 36 dest: 36
Time: 157 Flit Id: 446 Channel: 0 Router 27 dest: 28
Time: 157 Flit Id: 346 Channel: 2 Router 27 dest: 35
Time: 157 Flit Id: 358 Channel: 4 Router 28 dest: 28
Time: 157 Flit Id: 428 Channel: 0 Router 35 dest: 36
Time: 157 Flit Id: 418 Channel: 3 Router 35 dest: 27
Time: 157 Flit Id: 287 Channel: 4 Router 35 dest: 35
Time: 157 Flit Id: 583 Channel: 3 Router 36 dest: 27
Time: 157 Flit Id: 410 Channel: 4 Router 36 dest: 36
Time: 158 Flit Id: 339 Channel: 0 Router 27 dest: 28
Time: 158 Flit Id: 297 Channel: 2 Router 27 dest: 35
Time: 158 Flit Id: 381 Channel: 1 Router 28 dest: 35
Time: 158 Flit Id: 334 Channel: 2 Router 28 dest: 36
Time: 158 Flit Id: 444 Channel: 4 Router 28 dest: 28
Time: 158 Flit Id: 353 Channel: 3 Router 35 dest: 27
Time: 158 Flit Id: 296 Channel: 4 Router 35 dest: 35
Time: 158 Flit Id: 396 Channel: 3 Router 36 dest: 28
Time: 158 Flit Id: 430 Channel: 4 Router 36 dest: 36
Time: 159 Flit Id: 443 Channel: 0 Router 27 dest: 28
Time: 159 Flit Id: 579 Channel: 4 Router 27 dest: 27
Time: 159 Flit Id: 380 Channel: 2 Router 28 dest: 35
Time: 159 Flit Id: 400 Channel: 4 Router 28 dest: 28
Time: 159 Flit Id: 401 Channel: 0 Router 35 dest: 28
Time: 159 Flit Id: 295 Channel: 4 Router 35 dest: 35
Time: 159 Flit Id: 360 Channel: 1 Router 36 dest: 35
Time: 159 Flit Id: 571 Channel: 3 Router 36 dest: 28
Time: 159 Flit Id: 427 Channel: 4 Router 36 dest: 36
Time: 160 Flit Id: 442 Channel: 0 Router 27 dest: 28
Time: 160 Flit Id: 578 Channel: 4 Router 27 dest: 27
Time: 160 Flit Id: 582 Channel: 1 Router 28 dest: 27
Time: 160 Flit Id: 335 Channel: 2 Router 28 dest: 36
Time: 160 Flit Id: 399 Channel: 4 Router 28 dest: 28
Time: 160 Flit Id: 411 Channel: 0 Router 35 dest: 36
Time: 160 Flit Id: 581 Channel: 3 Router 35 dest: 27
Time: 160 Flit Id: 398 Channel: 3 Router 36 dest: 28
Time: 160 Flit Id: 405 Channel: 4 Router 36 dest: 36
Time: 161 Flit Id: 362 Channel: 2 Router 27 dest: 35
Time: 161 Flit Id: 580 Channel: 4 Router 27 dest: 27
Time: 161 Flit Id: 583 Channel: 1 Router 28 dest: 27
Time: 161 Flit Id: 446 Channel: 4 Router 28 dest: 28
Time: 161 Flit Id: 419 Channel: 3 Router 35 dest: 27
Time: 161 Flit Id: 346 Channel: 4 Router 35 dest: 35
Time: 161 Flit Id: 584 Channel: 3 Router 36 dest: 27
Time: 161 Flit Id: 428 Channel: 4 Router 36 dest: 36
Time: 162 Flit Id: 341 Channel: 0 Router 27 dest: 28
Time: 162 Flit Id: 418 Channel: 4 Router 27 dest: 27
Time: 162 Flit Id: 382 Channel: 1 Router 28 dest: 35
Time: 162 Flit Id: 339 Channel: 4 Router 28 dest: 28
Time: 162 Flit Id: 297 Channel: 4 Router 35 dest: 35
Time: 162 Flit Id: 587 Channel: 1 Router 36 dest: 27
Time: 162 Flit Id: 429 Channel: 4 Router 36 dest: 36
Time: 163 Flit Id: 445 Channel: 0 Router 27 dest: 28
Time: 163 Flit Id: 381 Channel: 2 Router 27 dest: 35
Time: 163 Flit Id: 353 Channel: 4 Router 27 dest: 27
Time: 163 Flit Id: 443 Channel: 4 Router 28 dest: 28
Time: 163 Flit Id: 397 Channel: 0 Router 35 dest: 28
Time: 163 Flit Id: 360 Channel: 4 Router 35 dest: 35
Time: 163 Flit Id: 380 Channel: 1 Router 36 dest: 35
Time: 163 Flit Id: 585 Channel: 3 Router 36 dest: 27
Time: 163 Flit Id: 334 Channel: 4 Router 36 dest: 36
Time: 164 Flit Id: 460 Channel: 0 Router 27 dest: 36
Time: 164 Flit Id: 461 Channel: 2 Router 27 dest: 36
Time: 164 Flit Id: 582 Channel: 4 Router 27 dest: 27
Time: 164 Flit Id: 384 Channel: 1 Router 28 dest: 35
Time: 164 Flit Id: 383 Channel: 2 Router 28 dest: 35
Time: 164 Flit Id: 442 Channel: 4 Router 28 dest: 28
Time: 164 Flit Id: 421 Channel: 3 Router 35 dest: 27
Time: 164 Flit Id: 552 Channel: 3 Router 36 dest: 28
Time: 164 Flit Id: 335 Channel: 4 Router 36 dest: 36
Time: 165 Flit Id: 447 Channel: 0 Router 27 dest: 28
Time: 165 Flit Id: 463 Channel: 2 Router 27 dest: 36
Time: 165 Flit Id: 583 Channel: 4 Router 27 dest: 27
Time: 165 Flit Id: 584 Channel: 1 Router 28 dest: 27
Time: 165 Flit Id: 396 Channel: 4 Router 28 dest: 28
Time: 165 Flit Id: 420 Channel: 3 Router 35 dest: 27
Time: 165 Flit Id: 362 Channel: 4 Router 35 dest: 35
Time: 165 Flit Id: 588 Channel: 3 Router 36 dest: 27
Time: 165 Flit Id: 411 Channel: 4 Router 36 dest: 36
Time: 166 Flit Id: 462 Channel: 0 Router 27 dest: 36
Time: 166 Flit Id: 382 Channel: 2 Router 27 dest: 35
Time: 166 Flit Id: 419 Channel: 4 Router 27 dest: 27
Time: 166 Flit Id: 385 Channel: 1 Router 28 dest: 35
Time: 166 Flit Id: 571 Channel: 4 Router 28 dest: 28
Time: 166 Flit Id: 473 Channel: 0 Router 35 dest: 28
Time: 166 Flit Id: 423 Channel: 3 Router 35 dest: 27
Time: 166 Flit Id: 589 Channel: 3 Router 36 dest: 27
Time: 167 Flit Id: 448 Channel: 0 Router 27 dest: 28
Time: 167 Flit Id: 581 Channel: 4 Router 27 dest: 27
Time: 167 Flit Id: 585 Channel: 1 Router 28 dest: 27
Time: 167 Flit Id: 341 Channel: 4 Router 28 dest: 28
Time: 167 Flit Id: 587 Channel: 3 Router 35 dest: 27
Time: 167 Flit Id: 381 Channel: 4 Router 35 dest: 35
Time: 168 Flit Id: 464 Channel: 2 Router 27 dest: 36
Time: 168 Flit Id: 421 Channel: 4 Router 27 dest: 27
Time: 168 Flit Id: 387 Channel: 1 Router 28 dest: 35
Time: 168 Flit Id: 460 Channel: 2 Router 28 dest: 36
Time: 168 Flit Id: 398 Channel: 4 Router 28 dest: 28
Time: 168 Flit Id: 461 Channel: 0 Router 35 dest: 36
Time: 168 Flit Id: 354 Channel: 3 Router 35 dest: 27
Time: 168 Flit Id: 380 Channel: 4 Router 35 dest: 35
Time: 168 Flit Id: 383 Channel: 1 Router 36 dest: 35
Time: 169 Flit Id: 465 Channel: 0 Router 27 dest: 36
Time: 169 Flit Id: 384 Channel: 2 Router 27 dest: 35
Time: 169 Flit Id: 588 Channel: 1 Router 28 dest: 27
Time: 169 Flit Id: 364 Channel: 2 Router 28 dest: 35
Time: 169 Flit Id: 445 Channel: 4 Router 28 dest: 28
Time: 169 Flit Id: 463 Channel: 0 Router 35 dest: 36
Time: 169 Flit Id: 474 Channel: 3 Router 35 dest: 28
Time: 170 Flit Id: 466 Channel: 2 Router 27 dest: 36
Time: 170 Flit Id: 584 Channel: 4 Router 27 dest: 27
Time: 170 Flit Id: 589 Channel: 1 Router 28 dest: 27
Time: 170 Flit Id: 363 Channel: 2 Router 28 dest: 35
Time: 170 Flit Id: 475 Channel: 0 Router 35 dest: 28
Time: 170 Flit Id: 382 Channel: 4 Router 35 dest: 35
Time: 170 Flit Id: 591 Channel: 3 Router 36 dest: 27
Time: 171 Flit Id: 467 Channel: 0 Router 27 dest: 36
Time: 171 Flit Id: 385 Channel: 2 Router 27 dest: 35
Time: 171 Flit Id: 585 Channel: 4 Router 27 dest: 27
Time: 171 Flit Id: 386 Channel: 1 Router 28 dest: 35
Time: 171 Flit Id: 462 Channel: 2 Router 28 dest: 36
Time: 171 Flit Id: 552 Channel: 4 Router 28 dest: 28
Time: 171 Flit Id: 422 Channel: 3 Router 35 dest: 27
Time: 171 Flit Id: 597 Channel: 1 Router 36 dest: 27
Time: 172 Flit Id: 449 Channel: 0 Router 27 dest: 28
Time: 172 Flit Id: 387 Channel: 2 Router 27 dest: 35
Time: 172 Flit Id: 420 Channel: 4 Router 27 dest: 27
Time: 172 Flit Id: 361 Channel: 2 Router 28 dest: 35
Time: 172 Flit Id: 447 Channel: 4 Router 28 dest: 28
Time: 172 Flit Id: 464 Channel: 0 Router 35 dest: 36
Time: 172 Flit Id: 383 Channel: 4 Router 35 dest: 35
Time: 172 Flit Id: 596 Channel: 3 Router 36 dest: 27
Time: 172 Flit Id: 460 Channel: 4 Router 36 dest: 36
Time: 173 Flit Id: 480 Channel: 2 Router 27 dest: 36
Time: 173 Flit Id: 423 Channel: 4 Router 27 dest: 27
Time: 173 Flit Id: 413 Channel: 2 Router 28 dest: 36
Time: 173 Flit Id: 448 Channel: 4 Router 28 dest: 28
Time: 173 Flit Id: 417 Channel: 3 Router 35 dest: 27
Time: 173 Flit Id: 384 Channel: 4 Router 35 dest: 35
Time: 173 Flit Id: 364 Channel: 1 Router 36 dest: 35
Time: 173 Flit Id: 401 Channel: 3 Router 36 dest: 28
Time: 173 Flit Id: 461 Channel: 4 Router 36 dest: 36
Time: 174 Flit Id: 481 Channel: 0 Router 27 dest: 36
Time: 174 Flit Id: 482 Channel: 2 Router 27 dest: 36
Time: 174 Flit Id: 587 Channel: 4 Router 27 dest: 27
Time: 174 Flit Id: 465 Channel: 2 Router 28 dest: 36
Time: 174 Flit Id: 466 Channel: 0 Router 35 dest: 36
Time: 174 Flit Id: 363 Channel: 1 Router 36 dest: 35
Time: 174 Flit Id: 553 Channel: 3 Router 36 dest: 28
Time: 174 Flit Id: 463 Channel: 4 Router 36 dest: 36
Time: 175 Flit Id: 474 Channel: 0 Router 27 dest: 28
Time: 175 Flit Id: 386 Channel: 2 Router 27 dest: 35
Time: 175 Flit Id: 422 Channel: 4 Router 27 dest: 27
Time: 175 Flit Id: 591 Channel: 1 Router 28 dest: 27
Time: 175 Flit Id: 415 Channel: 2 Router 28 dest: 36
Time: 175 Flit Id: 597 Channel: 3 Router 35 dest: 27
Time: 175 Flit Id: 385 Channel: 4 Router 35 dest: 35
Time: 175 Flit Id: 595 Channel: 3 Router 36 dest: 27
Time: 175 Flit Id: 462 Channel: 4 Router 36 dest: 36
Time: 176 Flit Id: 483 Channel: 0 Router 27 dest: 36
Time: 176 Flit Id: 588 Channel: 4 Router 27 dest: 27
Time: 176 Flit Id: 596 Channel: 1 Router 28 dest: 27
Time: 176 Flit Id: 449 Channel: 4 Router 28 dest: 28
Time: 176 Flit Id: 387 Channel: 4 Router 35 dest: 35
Time: 176 Flit Id: 361 Channel: 1 Router 36 dest: 35
Time: 176 Flit Id: 473 Channel: 3 Router 36 dest: 28
Time: 177 Flit Id: 484 Channel: 2 Router 27 dest: 36
Time: 177 Flit Id: 354 Channel: 4 Router 27 dest: 27
Time: 177 Flit Id: 451 Channel: 2 Router 28 dest: 36
Time: 177 Flit Id: 401 Channel: 4 Router 28 dest: 28
Time: 177 Flit Id: 364 Channel: 4 Router 35 dest: 35
Time: 177 Flit Id: 574 Channel: 3 Router 36 dest: 28
Time: 177 Flit Id: 464 Channel: 4 Router 36 dest: 36
Time: 178 Flit Id: 589 Channel: 4 Router 27 dest: 27
Time: 178 Flit Id: 453 Channel: 2 Router 28 dest: 36
Time: 178 Flit Id: 553 Channel: 4 Router 28 dest: 28
Time: 178 Flit Id: 477 Channel: 0 Router 35 dest: 28
Time: 178 Flit Id: 363 Channel: 4 Router 35 dest: 35
Time: 178 Flit Id: 650 Channel: 3 Router 36 dest: 28
Time: 178 Flit Id: 466 Channel: 4 Router 36 dest: 36
Time: 179 Flit Id: 485 Channel: 0 Router 27 dest: 36
Time: 179 Flit Id: 597 Channel: 4 Router 27 dest: 27
Time: 179 Flit Id: 416 Channel: 2 Router 28 dest: 36
Time: 179 Flit Id: 474 Channel: 4 Router 28 dest: 28
Time: 179 Flit Id: 495 Channel: 0 Router 35 dest: 36
Time: 179 Flit Id: 386 Channel: 4 Router 35 dest: 35
Time: 179 Flit Id: 415 Channel: 4 Router 36 dest: 36
Time: 180 Flit Id: 488 Channel: 2 Router 27 dest: 36
Time: 180 Flit Id: 417 Channel: 4 Router 27 dest: 27
Time: 180 Flit Id: 467 Channel: 2 Router 28 dest: 36
Time: 180 Flit Id: 473 Channel: 4 Router 28 dest: 28
Time: 180 Flit Id: 482 Channel: 0 Router 35 dest: 36
Time: 180 Flit Id: 478 Channel: 3 Router 35 dest: 28
Time: 180 Flit Id: 361 Channel: 4 Router 35 dest: 35
Time: 180 Flit Id: 694 Channel: 1 Router 36 dest: 35
Time: 180 Flit Id: 652 Channel: 3 Router 36 dest: 28
Time: 180 Flit Id: 465 Channel: 4 Router 36 dest: 36
Time: 181 Flit Id: 591 Channel: 4 Router 27 dest: 27
Time: 181 Flit Id: 595 Channel: 1 Router 28 dest: 27
Time: 181 Flit Id: 414 Channel: 2 Router 28 dest: 36
Time: 181 Flit Id: 574 Channel: 4 Router 28 dest: 28
Time: 181 Flit Id: 476 Channel: 0 Router 35 dest: 28
Time: 181 Flit Id: 586 Channel: 3 Router 36 dest: 27
Time: 181 Flit Id: 451 Channel: 4 Router 36 dest: 36
Time: 182 Flit Id: 596 Channel: 4 Router 27 dest: 27
Time: 182 Flit Id: 650 Channel: 4 Router 28 dest: 28
Time: 182 Flit Id: 493 Channel: 0 Router 35 dest: 36
Time: 182 Flit Id: 695 Channel: 1 Router 36 dest: 35
Time: 182 Flit Id: 475 Channel: 3 Router 36 dest: 28
Time: 182 Flit Id: 413 Channel: 4 Router 36 dest: 36
Time: 183 Flit Id: 501 Channel: 2 Router 27 dest: 35
Time: 183 Flit Id: 497 Channel: 0 Router 35 dest: 36
Time: 183 Flit Id: 696 Channel: 1 Router 36 dest: 35
Time: 183 Flit Id: 477 Channel: 3 Router 36 dest: 28
Time: 183 Flit Id: 453 Channel: 4 Router 36 dest: 36
Time: 184 Flit Id: 478 Channel: 0 Router 27 dest: 28
Time: 184 Flit Id: 457 Channel: 1 Router 28 dest: 35
Time: 184 Flit Id: 483 Channel: 2 Router 28 dest: 36
Time: 184 Flit Id: 652 Channel: 4 Router 28 dest: 28
Time: 184 Flit Id: 694 Channel: 4 Router 35 dest: 35
Time: 184 Flit Id: 416 Channel: 4 Router 36 dest: 36
Time: 185 Flit Id: 487 Channel: 0 Router 27 dest: 36
Time: 185 Flit Id: 502 Channel: 2 Router 27 dest: 35
Time: 185 Flit Id: 595 Channel: 4 Router 27 dest: 27
Time: 185 Flit Id: 586 Channel: 1 Router 28 dest: 27
Time: 185 Flit Id: 481 Channel: 2 Router 28 dest: 36
Time: 185 Flit Id: 520 Channel: 3 Router 35 dest: 28
Time: 185 Flit Id: 397 Channel: 3 Router 36 dest: 28
Time: 185 Flit Id: 467 Channel: 4 Router 36 dest: 36
Time: 186 Flit Id: 452 Channel: 2 Router 28 dest: 36
Time: 186 Flit Id: 475 Channel: 4 Router 28 dest: 28
Time: 186 Flit Id: 695 Channel: 4 Router 35 dest: 35
Time: 186 Flit Id: 590 Channel: 3 Router 36 dest: 27
Time: 186 Flit Id: 414 Channel: 4 Router 36 dest: 36
Time: 187 Flit Id: 458 Channel: 2 Router 28 dest: 35
Time: 187 Flit Id: 477 Channel: 4 Router 28 dest: 28
Time: 187 Flit Id: 479 Channel: 0 Router 35 dest: 28
Time: 187 Flit Id: 618 Channel: 3 Router 35 dest: 28
Time: 187 Flit Id: 696 Channel: 4 Router 35 dest: 35
Time: 187 Flit Id: 482 Channel: 4 Router 36 dest: 36
Time: 188 Flit Id: 505 Channel: 0 Router 27 dest: 28
Time: 188 Flit Id: 457 Channel: 2 Router 27 dest: 35
Time: 188 Flit Id: 454 Channel: 2 Router 28 dest: 35
Time: 188 Flit Id: 478 Channel: 4 Router 28 dest: 28
Time: 188 Flit Id: 494 Channel: 0 Router 35 dest: 36
Time: 188 Flit Id: 501 Channel: 4 Router 35 dest: 35
Time: 188 Flit Id: 476 Channel: 3 Router 36 dest: 28
Time: 188 Flit Id: 495 Channel: 4 Router 36 dest: 36
Time: 189 Flit Id: 520 Channel: 0 Router 27 dest: 28
Time: 189 Flit Id: 586 Channel: 4 Router 27 dest: 27
Time: 189 Flit Id: 456 Channel: 2 Router 28 dest: 35
Time: 189 Flit Id: 397 Channel: 4 Router 28 dest: 28
Time: 189 Flit Id: 502 Channel: 4 Router 35 dest: 35
Time: 189 Flit Id: 724 Channel: 3 Router 36 dest: 28
Time: 189 Flit Id: 483 Channel: 4 Router 36 dest: 36
Time: 190 Flit Id: 486 Channel: 0 Router 27 dest: 36
Time: 190 Flit Id: 590 Channel: 1 Router 28 dest: 27
Time: 190 Flit Id: 485 Channel: 2 Router 28 dest: 36
Time: 190 Flit Id: 496 Channel: 0 Router 35 dest: 36
Time: 190 Flit Id: 620 Channel: 3 Router 35 dest: 28
Time: 190 Flit Id: 725 Channel: 3 Router 36 dest: 28
Time: 190 Flit Id: 493 Channel: 4 Router 36 dest: 36
Time: 191 Flit Id: 506 Channel: 0 Router 27 dest: 28
Time: 191 Flit Id: 412 Channel: 2 Router 28 dest: 36
Time: 191 Flit Id: 458 Channel: 1 Router 36 dest: 35
Time: 191 Flit Id: 653 Channel: 3 Router 36 dest: 28
Time: 191 Flit Id: 497 Channel: 4 Router 36 dest: 36
Time: 192 Flit Id: 505 Channel: 4 Router 28 dest: 28
Time: 192 Flit Id: 484 Channel: 0 Router 35 dest: 36
Time: 192 Flit Id: 645 Channel: 3 Router 35 dest: 27
Time: 192 Flit Id: 457 Channel: 4 Router 35 dest: 35
Time: 192 Flit Id: 454 Channel: 1 Router 36 dest: 35
Time: 192 Flit Id: 479 Channel: 3 Router 36 dest: 28
Time: 192 Flit Id: 494 Channel: 4 Router 36 dest: 36
Time: 193 Flit Id: 618 Channel: 0 Router 27 dest: 28
Time: 193 Flit Id: 520 Channel: 4 Router 28 dest: 28
Time: 193 Flit Id: 498 Channel: 0 Router 35 dest: 36
Time: 193 Flit Id: 456 Channel: 1 Router 36 dest: 35
Time: 193 Flit Id: 727 Channel: 3 Router 36 dest: 28
Time: 193 Flit Id: 481 Channel: 4 Router 36 dest: 36
Time: 194 Flit Id: 503 Channel: 2 Router 27 dest: 35
Time: 194 Flit Id: 590 Channel: 4 Router 27 dest: 27
Time: 194 Flit Id: 487 Channel: 2 Router 28 dest: 36
Time: 194 Flit Id: 725 Channel: 4 Router 28 dest: 28
Time: 194 Flit Id: 480 Channel: 0 Router 35 dest: 36
Time: 194 Flit Id: 647 Channel: 3 Router 35 dest: 27
Time: 194 Flit Id: 742 Channel: 3 Router 36 dest: 28
Time: 194 Flit Id: 496 Channel: 4 Router 36 dest: 36
Time: 195 Flit Id: 506 Channel: 4 Router 28 dest: 28
Time: 195 Flit Id: 488 Channel: 0 Router 35 dest: 36
Time: 195 Flit Id: 648 Channel: 3 Router 35 dest: 27
Time: 195 Flit Id: 458 Channel: 4 Router 35 dest: 35
Time: 195 Flit Id: 651 Channel: 3 Router 36 dest: 28
Time: 195 Flit Id: 452 Channel: 4 Router 36 dest: 36
Time: 196 Flit Id: 510 Channel: 0 Router 27 dest: 28
Time: 196 Flit Id: 645 Channel: 4 Router 27 dest: 27
Time: 196 Flit Id: 513 Channel: 1 Router 28 dest: 27
Time: 196 Flit Id: 455 Channel: 2 Router 28 dest: 35
Time: 196 Flit Id: 479 Channel: 4 Router 28 dest: 28
Time: 196 Flit Id: 646 Channel: 3 Router 35 dest: 27
Time: 196 Flit Id: 454 Channel: 4 Router 35 dest: 35
Time: 196 Flit Id: 485 Channel: 4 Router 36 dest: 36
Time: 197 Flit Id: 620 Channel: 0 Router 27 dest: 28
Time: 197 Flit Id: 504 Channel: 2 Router 27 dest: 35
Time: 197 Flit Id: 450 Channel: 2 Router 28 dest: 36
Time: 197 Flit Id: 724 Channel: 4 Router 28 dest: 28
Time: 197 Flit Id: 617 Channel: 0 Router 35 dest: 28
Time: 197 Flit Id: 649 Channel: 3 Router 35 dest: 27
Time: 197 Flit Id: 456 Channel: 4 Router 35 dest: 35
Time: 197 Flit Id: 412 Channel: 4 Router 36 dest: 36
Time: 198 Flit Id: 509 Channel: 0 Router 27 dest: 28
Time: 198 Flit Id: 647 Channel: 4 Router 27 dest: 27
Time: 198 Flit Id: 489 Channel: 2 Router 28 dest: 36
Time: 198 Flit Id: 727 Channel: 4 Router 28 dest: 28
Time: 198 Flit Id: 655 Channel: 0 Router 35 dest: 28
Time: 198 Flit Id: 654 Channel: 3 Router 35 dest: 28
Time: 198 Flit Id: 503 Channel: 4 Router 35 dest: 35
Time: 198 Flit Id: 487 Channel: 4 Router 36 dest: 36
Time: 199 Flit Id: 499 Channel: 2 Router 27 dest: 35
Time: 199 Flit Id: 648 Channel: 4 Router 27 dest: 27
Time: 199 Flit Id: 490 Channel: 2 Router 28 dest: 36
Time: 199 Flit Id: 476 Channel: 4 Router 28 dest: 28
Time: 199 Flit Id: 619 Channel: 0 Router 35 dest: 28
Time: 199 Flit Id: 745 Channel: 3 Router 36 dest: 28
Time: 199 Flit Id: 498 Channel: 4 Router 36 dest: 36
Time: 200 Flit Id: 511 Channel: 0 Router 27 dest: 28
Time: 200 Flit Id: 500 Channel: 2 Router 27 dest: 35
Time: 200 Flit Id: 513 Channel: 4 Router 27 dest: 27
Time: 200 Flit Id: 491 Channel: 2 Router 28 dest: 36
Time: 200 Flit Id: 618 Channel: 4 Router 28 dest: 28
Time: 200 Flit Id: 455 Channel: 1 Router 36 dest: 35
Time: 200 Flit Id: 484 Channel: 4 Router 36 dest: 36
Time: 201 Flit Id: 646 Channel: 4 Router 27 dest: 27
Time: 201 Flit Id: 514 Channel: 1 Router 28 dest: 27
Time: 201 Flit Id: 486 Channel: 2 Router 28 dest: 36
Time: 201 Flit Id: 653 Channel: 4 Router 28 dest: 28
Time: 201 Flit Id: 657 Channel: 3 Router 35 dest: 28
Time: 201 Flit Id: 504 Channel: 4 Router 35 dest: 35
Time: 201 Flit Id: 744 Channel: 3 Router 36 dest: 28
Time: 201 Flit Id: 450 Channel: 4 Router 36 dest: 36
Time: 202 Flit Id: 649 Channel: 4 Router 27 dest: 27
Time: 202 Flit Id: 515 Channel: 1 Router 28 dest: 27
Time: 202 Flit Id: 459 Channel: 2 Router 28 dest: 35
Time: 202 Flit Id: 651 Channel: 4 Router 28 dest: 28
Time: 202 Flit Id: 656 Channel: 3 Router 35 dest: 28
Time: 202 Flit Id: 726 Channel: 3 Router 36 dest: 28
Time: 202 Flit Id: 480 Channel: 4 Router 36 dest: 36
Time: 203 Flit Id: 522 Channel: 2 Router 27 dest: 35
Time: 203 Flit Id: 516 Channel: 1 Router 28 dest: 27
Time: 203 Flit Id: 742 Channel: 4 Router 28 dest: 28
Time: 203 Flit Id: 659 Channel: 3 Router 35 dest: 28
Time: 203 Flit Id: 499 Channel: 4 Router 35 dest: 35
Time: 203 Flit Id: 751 Channel: 3 Router 36 dest: 28
Time: 203 Flit Id: 489 Channel: 4 Router 36 dest: 36
Time: 204 Flit Id: 521 Channel: 2 Router 27 dest: 35
Time: 204 Flit Id: 517 Channel: 1 Router 28 dest: 27
Time: 204 Flit Id: 745 Channel: 4 Router 28 dest: 28
Time: 204 Flit Id: 658 Channel: 0 Router 35 dest: 28
Time: 204 Flit Id: 500 Channel: 4 Router 35 dest: 35
Time: 204 Flit Id: 617 Channel: 3 Router 36 dest: 28
Time: 204 Flit Id: 490 Channel: 4 Router 36 dest: 36
Time: 205 Flit Id: 526 Channel: 0 Router 27 dest: 28
Time: 205 Flit Id: 514 Channel: 4 Router 27 dest: 27
Time: 205 Flit Id: 518 Channel: 1 Router 28 dest: 27
Time: 205 Flit Id: 510 Channel: 4 Router 28 dest: 28
Time: 205 Flit Id: 455 Channel: 4 Router 35 dest: 35
Time: 205 Flit Id: 488 Channel: 4 Router 36 dest: 36
Time: 206 Flit Id: 527 Channel: 0 Router 27 dest: 28
Time: 206 Flit Id: 515 Channel: 4 Router 27 dest: 27
Time: 206 Flit Id: 519 Channel: 1 Router 28 dest: 27
Time: 206 Flit Id: 492 Channel: 2 Router 28 dest: 36
Time: 206 Flit Id: 726 Channel: 4 Router 28 dest: 28
Time: 206 Flit Id: 459 Channel: 1 Router 36 dest: 35
Time: 206 Flit Id: 746 Channel: 3 Router 36 dest: 28
Time: 206 Flit Id: 491 Channel: 4 Router 36 dest: 36
Time: 207 Flit Id: 512 Channel: 0 Router 27 dest: 28
Time: 207 Flit Id: 516 Channel: 4 Router 27 dest: 27
Time: 207 Flit Id: 751 Channel: 4 Router 28 dest: 28
Time: 207 Flit Id: 522 Channel: 4 Router 35 dest: 35
Time: 207 Flit Id: 743 Channel: 3 Router 36 dest: 28
Time: 207 Flit Id: 486 Channel: 4 Router 36 dest: 36
Time: 208 Flit Id: 528 Channel: 0 Router 27 dest: 28
Time: 208 Flit Id: 517 Channel: 4 Router 27 dest: 27
Time: 208 Flit Id: 535 Channel: 1 Router 28 dest: 27
Time: 208 Flit Id: 511 Channel: 4 Router 28 dest: 28
Time: 208 Flit Id: 521 Channel: 4 Router 35 dest: 35
Time: 208 Flit Id: 752 Channel: 3 Router 36 dest: 28
Time: 209 Flit Id: 518 Channel: 4 Router 27 dest: 27
Time: 209 Flit Id: 536 Channel: 1 Router 28 dest: 27
Time: 209 Flit Id: 526 Channel: 4 Router 28 dest: 28
Time: 209 Flit Id: 662 Channel: 0 Router 35 dest: 28
Time: 209 Flit Id: 755 Channel: 3 Router 36 dest: 28
Time: 210 Flit Id: 530 Channel: 0 Router 27 dest: 28
Time: 210 Flit Id: 519 Channel: 4 Router 27 dest: 27
Time: 210 Flit Id: 537 Channel: 1 Router 28 dest: 27
Time: 210 Flit Id: 527 Channel: 4 Router 28 dest: 28
Time: 210 Flit Id: 459 Channel: 4 Router 35 dest: 35
Time: 210 Flit Id: 492 Channel: 4 Router 36 dest: 36
Time: 211 Flit Id: 538 Channel: 1 Router 28 dest: 27
Time: 211 Flit Id: 743 Channel: 4 Router 28 dest: 28
Time: 211 Flit Id: 757 Channel: 3 Router 36 dest: 28
Time: 212 Flit Id: 535 Channel: 4 Router 27 dest: 27
Time: 212 Flit Id: 534 Channel: 1 Router 28 dest: 27
Time: 212 Flit Id: 546 Channel: 2 Router 28 dest: 36
Time: 212 Flit Id: 528 Channel: 4 Router 28 dest: 28
Time: 212 Flit Id: 758 Channel: 1 Router 36 dest: 35
Time: 212 Flit Id: 754 Channel: 3 Router 36 dest: 28
Time: 213 Flit Id: 507 Channel: 0 Router 27 dest: 28
Time: 213 Flit Id: 536 Channel: 4 Router 27 dest: 27
Time: 213 Flit Id: 547 Channel: 2 Router 28 dest: 36
Time: 213 Flit Id: 620 Channel: 4 Router 28 dest: 28
Time: 213 Flit Id: 759 Channel: 1 Router 36 dest: 35
Time: 214 Flit Id: 532 Channel: 0 Router 27 dest: 28
Time: 214 Flit Id: 537 Channel: 4 Router 27 dest: 27
Time: 214 Flit Id: 548 Channel: 2 Router 28 dest: 36
Time: 214 Flit Id: 530 Channel: 4 Router 28 dest: 28
Time: 215 Flit Id: 533 Channel: 0 Router 27 dest: 28
Time: 215 Flit Id: 538 Channel: 4 Router 27 dest: 27
Time: 215 Flit Id: 549 Channel: 2 Router 28 dest: 36
Time: 215 Flit Id: 755 Channel: 4 Router 28 dest: 28
Time: 216 Flit Id: 534 Channel: 4 Router 27 dest: 27
Time: 216 Flit Id: 550 Channel: 2 Router 28 dest: 36
Time: 216 Flit Id: 744 Channel: 4 Router 28 dest: 28
Time: 216 Flit Id: 758 Channel: 4 Router 35 dest: 35
Time: 216 Flit Id: 753 Channel: 3 Router 36 dest: 28
Time: 216 Flit Id: 546 Channel: 4 Router 36 dest: 36
Time: 217 Flit Id: 555 Channel: 0 Router 27 dest: 28
Time: 217 Flit Id: 551 Channel: 2 Router 28 dest: 36
Time: 217 Flit Id: 509 Channel: 4 Router 28 dest: 28
Time: 217 Flit Id: 759 Channel: 4 Router 35 dest: 35
Time: 217 Flit Id: 771 Channel: 1 Router 36 dest: 27
Time: 217 Flit Id: 547 Channel: 4 Router 36 dest: 36
Time: 218 Flit Id: 531 Channel: 0 Router 27 dest: 28
Time: 218 Flit Id: 592 Channel: 1 Router 28 dest: 35
Time: 218 Flit Id: 532 Channel: 4 Router 28 dest: 28
Time: 218 Flit Id: 773 Channel: 1 Router 36 dest: 27
Time: 218 Flit Id: 548 Channel: 4 Router 36 dest: 36
Time: 219 Flit Id: 556 Channel: 0 Router 27 dest: 28
Time: 219 Flit Id: 593 Channel: 2 Router 28 dest: 35
Time: 219 Flit Id: 757 Channel: 4 Router 28 dest: 28
Time: 219 Flit Id: 772 Channel: 1 Router 36 dest: 27
Time: 219 Flit Id: 549 Channel: 4 Router 36 dest: 36
Time: 220 Flit Id: 512 Channel: 4 Router 28 dest: 28
Time: 220 Flit Id: 774 Channel: 3 Router 36 dest: 27
Time: 220 Flit Id: 550 Channel: 4 Router 36 dest: 36
Time: 221 Flit Id: 594 Channel: 2 Router 28 dest: 35
Time: 221 Flit Id: 507 Channel: 4 Router 28 dest: 28
Time: 221 Flit Id: 771 Channel: 3 Router 35 dest: 27
Time: 221 Flit Id: 756 Channel: 3 Router 36 dest: 28
Time: 221 Flit Id: 551 Channel: 4 Router 36 dest: 36
Time: 222 Flit Id: 529 Channel: 0 Router 27 dest: 28
Time: 222 Flit Id: 592 Channel: 2 Router 27 dest: 35
Time: 222 Flit Id: 598 Channel: 2 Router 28 dest: 36
Time: 222 Flit Id: 555 Channel: 4 Router 28 dest: 28
Time: 222 Flit Id: 773 Channel: 3 Router 35 dest: 27
Time: 223 Flit Id: 558 Channel: 0 Router 27 dest: 28
Time: 223 Flit Id: 599 Channel: 2 Router 28 dest: 36
Time: 223 Flit Id: 753 Channel: 4 Router 28 dest: 28
Time: 223 Flit Id: 772 Channel: 3 Router 35 dest: 27
Time: 223 Flit Id: 593 Channel: 1 Router 36 dest: 35
Time: 224 Flit Id: 774 Channel: 1 Router 28 dest: 27
Time: 224 Flit Id: 600 Channel: 2 Router 28 dest: 36
Time: 224 Flit Id: 782 Channel: 3 Router 36 dest: 28
Time: 225 Flit Id: 560 Channel: 0 Router 27 dest: 28
Time: 225 Flit Id: 771 Channel: 4 Router 27 dest: 27
Time: 225 Flit Id: 601 Channel: 2 Router 28 dest: 36
Time: 225 Flit Id: 617 Channel: 4 Router 28 dest: 28
Time: 225 Flit Id: 594 Channel: 1 Router 36 dest: 35
Time: 226 Flit Id: 525 Channel: 0 Router 27 dest: 28
Time: 226 Flit Id: 773 Channel: 4 Router 27 dest: 27
Time: 226 Flit Id: 602 Channel: 2 Router 28 dest: 36
Time: 226 Flit Id: 531 Channel: 4 Router 28 dest: 28
Time: 226 Flit Id: 592 Channel: 4 Router 35 dest: 35
Time: 226 Flit Id: 598 Channel: 4 Router 36 dest: 36
Time: 227 Flit Id: 562 Channel: 2 Router 27 dest: 35
Time: 227 Flit Id: 772 Channel: 4 Router 27 dest: 27
Time: 227 Flit Id: 603 Channel: 2 Router 28 dest: 36
Time: 227 Flit Id: 756 Channel: 4 Router 28 dest: 28
Time: 227 Flit Id: 593 Channel: 4 Router 35 dest: 35
Time: 227 Flit Id: 599 Channel: 4 Router 36 dest: 36
Time: 228 Flit Id: 563 Channel: 2 Router 27 dest: 35
Time: 228 Flit Id: 774 Channel: 4 Router 27 dest: 27
Time: 228 Flit Id: 639 Channel: 2 Router 28 dest: 35
Time: 228 Flit Id: 533 Channel: 4 Router 28 dest: 28
Time: 228 Flit Id: 770 Channel: 3 Router 36 dest: 27
Time: 228 Flit Id: 600 Channel: 4 Router 36 dest: 36
Time: 229 Flit Id: 640 Channel: 1 Router 28 dest: 35
Time: 229 Flit Id: 746 Channel: 4 Router 28 dest: 28
Time: 229 Flit Id: 594 Channel: 4 Router 35 dest: 35
Time: 229 Flit Id: 775 Channel: 3 Router 36 dest: 27
Time: 229 Flit Id: 601 Channel: 4 Router 36 dest: 36
Time: 230 Flit Id: 564 Channel: 2 Router 27 dest: 35
Time: 230 Flit Id: 641 Channel: 2 Router 28 dest: 35
Time: 230 Flit Id: 752 Channel: 4 Router 28 dest: 28
Time: 230 Flit Id: 655 Channel: 3 Router 36 dest: 28
[...]
Time: 2148 Flit Id: 6075 Channel: 4 Router 27 dest: 27
Time: 2148 Flit Id: 6073 Channel: 1 Router 28 dest: 27
Time: 2148 Flit Id: 6079 Channel: 2 Router 28 dest: 36
Time: 2148 Flit Id: 6289 Channel: 0 Router 35 dest: 36
Time: 2148 Flit Id: 6977 Channel: 4 Router 35 dest: 35
Time: 2148 Flit Id: 7035 Channel: 3 Router 36 dest: 28
Time: 2148 Flit Id: 6238 Channel: 4 Router 36 dest: 36
Time: 2149 Flit Id: 6044 Channel: 2 Router 27 dest: 35
Time: 2149 Flit Id: 6039 Channel: 4 Router 27 dest: 27
Time: 2149 Flit Id: 6080 Channel: 2 Router 28 dest: 36
Time: 2149 Flit Id: 6286 Channel: 0 Router 35 dest: 36
Time: 2149 Flit Id: 7017 Channel: 4 Router 35 dest: 35
Time: 2149 Flit Id: 7037 Channel: 3 Router 36 dest: 28
Time: 2149 Flit Id: 6241 Channel: 4 Router 36 dest: 36
Time: 2150 Flit Id: 6074 Channel: 4 Router 27 dest: 27
Time: 2150 Flit Id: 6081 Channel: 2 Router 28 dest: 36
Time: 2150 Flit Id: 7032 Channel: 4 Router 28 dest: 28
Time: 2150 Flit Id: 6291 Channel: 0 Router 35 dest: 36
Time: 2150 Flit Id: 6043 Channel: 4 Router 35 dest: 35
Time: 2150 Flit Id: 6078 Channel: 4 Router 36 dest: 36
Time: 2151 Flit Id: 6046 Channel: 2 Router 27 dest: 35
Time: 2151 Flit Id: 6076 Channel: 4 Router 27 dest: 27
Time: 2151 Flit Id: 6082 Channel: 2 Router 28 dest: 36
Time: 2151 Flit Id: 7033 Channel: 4 Router 28 dest: 28
Time: 2151 Flit Id: 6301 Channel: 3 Router 35 dest: 28
Time: 2151 Flit Id: 6978 Channel: 4 Router 35 dest: 35
Time: 2151 Flit Id: 7038 Channel: 3 Router 36 dest: 28
Time: 2151 Flit Id: 6236 Channel: 4 Router 36 dest: 36
Time: 2152 Flit Id: 6073 Channel: 4 Router 27 dest: 27
Time: 2152 Flit Id: 7035 Channel: 4 Router 28 dest: 28
Time: 2152 Flit Id: 5975 Channel: 4 Router 35 dest: 35
Time: 2152 Flit Id: 7099 Channel: 1 Router 36 dest: 35
Time: 2152 Flit Id: 7036 Channel: 3 Router 36 dest: 28
Time: 2152 Flit Id: 6288 Channel: 4 Router 36 dest: 36
Time: 2153 Flit Id: 6124 Channel: 1 Router 28 dest: 35
Time: 2153 Flit Id: 7037 Channel: 4 Router 28 dest: 28
Time: 2153 Flit Id: 6239 Channel: 0 Router 35 dest: 36
Time: 2153 Flit Id: 6044 Channel: 4 Router 35 dest: 35
Time: 2153 Flit Id: 5969 Channel: 1 Router 36 dest: 35
Time: 2153 Flit Id: 6289 Channel: 4 Router 36 dest: 36
Time: 2154 Flit Id: 6068 Channel: 0 Router 27 dest: 36
Time: 2154 Flit Id: 6125 Channel: 1 Router 28 dest: 35
Time: 2154 Flit Id: 6126 Channel: 2 Router 28 dest: 35
Time: 2154 Flit Id: 6290 Channel: 0 Router 35 dest: 36
Time: 2154 Flit Id: 7100 Channel: 1 Router 36 dest: 35
Time: 2154 Flit Id: 6286 Channel: 4 Router 36 dest: 36
Time: 2155 Flit Id: 6301 Channel: 0 Router 27 dest: 28
Time: 2155 Flit Id: 6065 Channel: 2 Router 28 dest: 36
Time: 2155 Flit Id: 7038 Channel: 4 Router 28 dest: 28
Time: 2155 Flit Id: 6305 Channel: 3 Router 35 dest: 28
Time: 2155 Flit Id: 6046 Channel: 4 Router 35 dest: 35
Time: 2155 Flit Id: 7034 Channel: 3 Router 36 dest: 28
Time: 2155 Flit Id: 6080 Channel: 4 Router 36 dest: 36
Time: 2156 Flit Id: 6127 Channel: 1 Router 28 dest: 35
Time: 2156 Flit Id: 7036 Channel: 4 Router 28 dest: 28
Time: 2156 Flit Id: 6306 Channel: 0 Router 35 dest: 28
Time: 2156 Flit Id: 7099 Channel: 4 Router 35 dest: 35
Time: 2156 Flit Id: 7016 Channel: 1 Router 36 dest: 35
Time: 2156 Flit Id: 6079 Channel: 4 Router 36 dest: 36
Time: 2157 Flit Id: 6124 Channel: 2 Router 27 dest: 35
Time: 2157 Flit Id: 6128 Channel: 1 Router 28 dest: 35
Time: 2157 Flit Id: 6287 Channel: 0 Router 35 dest: 36
Time: 2157 Flit Id: 5969 Channel: 4 Router 35 dest: 35
Time: 2157 Flit Id: 7101 Channel: 1 Router 36 dest: 35
Time: 2157 Flit Id: 6081 Channel: 4 Router 36 dest: 36
Time: 2158 Flit Id: 6125 Channel: 2 Router 27 dest: 35
Time: 2158 Flit Id: 6130 Channel: 2 Router 28 dest: 35
Time: 2158 Flit Id: 6023 Channel: 0 Router 35 dest: 36
Time: 2158 Flit Id: 6307 Channel: 3 Router 35 dest: 28
Time: 2158 Flit Id: 7100 Channel: 4 Router 35 dest: 35
Time: 2158 Flit Id: 7102 Channel: 1 Router 36 dest: 35
Time: 2158 Flit Id: 6082 Channel: 4 Router 36 dest: 36
Time: 2159 Flit Id: 6305 Channel: 0 Router 27 dest: 28
Time: 2159 Flit Id: 6301 Channel: 4 Router 28 dest: 28
Time: 2159 Flit Id: 6302 Channel: 0 Router 35 dest: 28
Time: 2159 Flit Id: 7114 Channel: 3 Router 36 dest: 27
Time: 2159 Flit Id: 6239 Channel: 4 Router 36 dest: 36
Time: 2160 Flit Id: 6022 Channel: 2 Router 27 dest: 36
Time: 2160 Flit Id: 7034 Channel: 4 Router 28 dest: 28
Time: 2160 Flit Id: 6330 Channel: 3 Router 35 dest: 27
Time: 2160 Flit Id: 7016 Channel: 4 Router 35 dest: 35
Time: 2160 Flit Id: 7103 Channel: 1 Router 36 dest: 35
Time: 2160 Flit Id: 7115 Channel: 3 Router 36 dest: 27
Time: 2160 Flit Id: 6065 Channel: 4 Router 36 dest: 36
Time: 2161 Flit Id: 6070 Channel: 0 Router 27 dest: 36
Time: 2161 Flit Id: 6127 Channel: 2 Router 27 dest: 35
Time: 2161 Flit Id: 6068 Channel: 2 Router 28 dest: 36
Time: 2161 Flit Id: 6329 Channel: 3 Router 35 dest: 27
Time: 2161 Flit Id: 6124 Channel: 4 Router 35 dest: 35
Time: 2161 Flit Id: 7116 Channel: 1 Router 36 dest: 27
Time: 2161 Flit Id: 6306 Channel: 3 Router 36 dest: 28
Time: 2161 Flit Id: 6287 Channel: 4 Router 36 dest: 36
Time: 2162 Flit Id: 6307 Channel: 0 Router 27 dest: 28
Time: 2162 Flit Id: 6128 Channel: 2 Router 27 dest: 35
Time: 2162 Flit Id: 6133 Channel: 1 Router 28 dest: 35
Time: 2162 Flit Id: 6134 Channel: 2 Router 28 dest: 35
Time: 2162 Flit Id: 6332 Channel: 3 Router 35 dest: 27
Time: 2162 Flit Id: 6125 Channel: 4 Router 35 dest: 35
Time: 2162 Flit Id: 6126 Channel: 1 Router 36 dest: 35
Time: 2162 Flit Id: 7117 Channel: 3 Router 36 dest: 27
Time: 2162 Flit Id: 6290 Channel: 4 Router 36 dest: 36
Time: 2163 Flit Id: 6045 Channel: 2 Router 27 dest: 35
Time: 2163 Flit Id: 7114 Channel: 1 Router 28 dest: 27
Time: 2163 Flit Id: 6305 Channel: 4 Router 28 dest: 28
Time: 2163 Flit Id: 6331 Channel: 3 Router 35 dest: 27
Time: 2163 Flit Id: 7102 Channel: 4 Router 35 dest: 35
Time: 2163 Flit Id: 7118 Channel: 1 Router 36 dest: 27
Time: 2163 Flit Id: 6302 Channel: 3 Router 36 dest: 28
Time: 2163 Flit Id: 6242 Channel: 4 Router 36 dest: 36
Time: 2164 Flit Id: 6330 Channel: 4 Router 27 dest: 27
Time: 2164 Flit Id: 6135 Channel: 1 Router 28 dest: 35
Time: 2164 Flit Id: 5991 Channel: 0 Router 35 dest: 36
Time: 2164 Flit Id: 6333 Channel: 3 Router 35 dest: 27
Time: 2164 Flit Id: 7101 Channel: 4 Router 35 dest: 35
Time: 2164 Flit Id: 7104 Channel: 1 Router 36 dest: 35
Time: 2164 Flit Id: 6291 Channel: 4 Router 36 dest: 36
Time: 2165 Flit Id: 6083 Channel: 0 Router 27 dest: 36
Time: 2165 Flit Id: 6329 Channel: 4 Router 27 dest: 27
Time: 2165 Flit Id: 7115 Channel: 1 Router 28 dest: 27
Time: 2165 Flit Id: 6070 Channel: 2 Router 28 dest: 36
Time: 2165 Flit Id: 7116 Channel: 3 Router 35 dest: 27
Time: 2165 Flit Id: 6127 Channel: 4 Router 35 dest: 35
Time: 2165 Flit Id: 6130 Channel: 1 Router 36 dest: 35
Time: 2165 Flit Id: 7120 Channel: 3 Router 36 dest: 27
Time: 2165 Flit Id: 6023 Channel: 4 Router 36 dest: 36
Time: 2166 Flit Id: 6133 Channel: 2 Router 27 dest: 35
Time: 2166 Flit Id: 6332 Channel: 4 Router 27 dest: 27
Time: 2166 Flit Id: 7117 Channel: 1 Router 28 dest: 27
Time: 2166 Flit Id: 6306 Channel: 4 Router 28 dest: 28
Time: 2166 Flit Id: 6304 Channel: 0 Router 35 dest: 28
Time: 2166 Flit Id: 6128 Channel: 4 Router 35 dest: 35
Time: 2166 Flit Id: 6068 Channel: 4 Router 36 dest: 36
Time: 2167 Flit Id: 7114 Channel: 4 Router 27 dest: 27
Time: 2167 Flit Id: 6129 Channel: 1 Router 28 dest: 35
Time: 2167 Flit Id: 6302 Channel: 4 Router 28 dest: 28
Time: 2167 Flit Id: 6021 Channel: 0 Router 35 dest: 36
Time: 2167 Flit Id: 7118 Channel: 3 Router 35 dest: 27
Time: 2167 Flit Id: 7103 Channel: 4 Router 35 dest: 35
Time: 2168 Flit Id: 6135 Channel: 2 Router 27 dest: 35
Time: 2168 Flit Id: 6331 Channel: 4 Router 27 dest: 27
Time: 2168 Flit Id: 6136 Channel: 1 Router 28 dest: 35
Time: 2168 Flit Id: 6307 Channel: 4 Router 28 dest: 28
Time: 2168 Flit Id: 6022 Channel: 0 Router 35 dest: 36
Time: 2168 Flit Id: 6345 Channel: 3 Router 35 dest: 28
Time: 2168 Flit Id: 6045 Channel: 4 Router 35 dest: 35
Time: 2168 Flit Id: 7122 Channel: 3 Router 36 dest: 27
Time: 2168 Flit Id: 5991 Channel: 4 Router 36 dest: 36
Time: 2169 Flit Id: 6085 Channel: 2 Router 27 dest: 36
Time: 2169 Flit Id: 6333 Channel: 4 Router 27 dest: 27
Time: 2169 Flit Id: 7120 Channel: 1 Router 28 dest: 27
Time: 2169 Flit Id: 6139 Channel: 2 Router 28 dest: 35
Time: 2169 Flit Id: 6342 Channel: 0 Router 35 dest: 28
Time: 2169 Flit Id: 6126 Channel: 4 Router 35 dest: 35
Time: 2169 Flit Id: 7119 Channel: 1 Router 36 dest: 27
Time: 2169 Flit Id: 6070 Channel: 4 Router 36 dest: 36
Time: 2170 Flit Id: 7115 Channel: 4 Router 27 dest: 27
Time: 2170 Flit Id: 6083 Channel: 2 Router 28 dest: 36
Time: 2170 Flit Id: 6303 Channel: 0 Router 35 dest: 28
Time: 2170 Flit Id: 6347 Channel: 3 Router 35 dest: 28
Time: 2170 Flit Id: 7104 Channel: 4 Router 35 dest: 35
Time: 2170 Flit Id: 7121 Channel: 1 Router 36 dest: 27
Time: 2170 Flit Id: 7165 Channel: 3 Router 36 dest: 28
Time: 2171 Flit Id: 6129 Channel: 2 Router 27 dest: 35
Time: 2171 Flit Id: 7116 Channel: 4 Router 27 dest: 27
Time: 2171 Flit Id: 6140 Channel: 1 Router 28 dest: 35
Time: 2171 Flit Id: 6343 Channel: 3 Router 35 dest: 28
Time: 2171 Flit Id: 6130 Channel: 4 Router 35 dest: 35
Time: 2171 Flit Id: 7166 Channel: 3 Router 36 dest: 28
Time: 2171 Flit Id: 6021 Channel: 4 Router 36 dest: 36
Time: 2172 Flit Id: 6345 Channel: 0 Router 27 dest: 28
Time: 2172 Flit Id: 6086 Channel: 2 Router 27 dest: 36
Time: 2172 Flit Id: 7117 Channel: 4 Router 27 dest: 27
Time: 2172 Flit Id: 7122 Channel: 1 Router 28 dest: 27
Time: 2172 Flit Id: 6348 Channel: 0 Router 35 dest: 28
Time: 2172 Flit Id: 6133 Channel: 4 Router 35 dest: 35
Time: 2172 Flit Id: 6134 Channel: 1 Router 36 dest: 35
Time: 2172 Flit Id: 6304 Channel: 3 Router 36 dest: 28
Time: 2172 Flit Id: 6022 Channel: 4 Router 36 dest: 36
Time: 2173 Flit Id: 6136 Channel: 2 Router 27 dest: 35
Time: 2173 Flit Id: 7120 Channel: 4 Router 27 dest: 27
Time: 2173 Flit Id: 6142 Channel: 1 Router 28 dest: 27
Time: 2173 Flit Id: 7119 Channel: 3 Router 35 dest: 27
Time: 2173 Flit Id: 6135 Channel: 4 Router 35 dest: 35
Time: 2173 Flit Id: 7167 Channel: 3 Router 36 dest: 28
Time: 2174 Flit Id: 6347 Channel: 0 Router 27 dest: 28
Time: 2174 Flit Id: 6019 Channel: 2 Router 27 dest: 36
Time: 2174 Flit Id: 7118 Channel: 4 Router 27 dest: 27
Time: 2174 Flit Id: 7165 Channel: 4 Router 28 dest: 28
Time: 2174 Flit Id: 6085 Channel: 0 Router 35 dest: 36
Time: 2174 Flit Id: 6346 Channel: 3 Router 35 dest: 28
Time: 2174 Flit Id: 6139 Channel: 1 Router 36 dest: 35
Time: 2174 Flit Id: 7168 Channel: 3 Router 36 dest: 28
Time: 2174 Flit Id: 6083 Channel: 4 Router 36 dest: 36
Time: 2175 Flit Id: 6343 Channel: 0 Router 27 dest: 28
Time: 2175 Flit Id: 6067 Channel: 2 Router 27 dest: 36
Time: 2175 Flit Id: 6143 Channel: 1 Router 28 dest: 27
Time: 2175 Flit Id: 7166 Channel: 4 Router 28 dest: 28
Time: 2175 Flit Id: 7121 Channel: 3 Router 35 dest: 27
Time: 2175 Flit Id: 6129 Channel: 4 Router 35 dest: 35
Time: 2175 Flit Id: 7105 Channel: 1 Router 36 dest: 35
Time: 2176 Flit Id: 7122 Channel: 4 Router 27 dest: 27
Time: 2176 Flit Id: 6137 Channel: 1 Router 28 dest: 35
Time: 2176 Flit Id: 6345 Channel: 4 Router 28 dest: 28
Time: 2176 Flit Id: 6086 Channel: 0 Router 35 dest: 36
Time: 2176 Flit Id: 6134 Channel: 4 Router 35 dest: 35
Time: 2176 Flit Id: 7170 Channel: 3 Router 36 dest: 28
Time: 2177 Flit Id: 6096 Channel: 0 Router 27 dest: 28
Time: 2177 Flit Id: 6140 Channel: 2 Router 27 dest: 35
Time: 2177 Flit Id: 6142 Channel: 4 Router 27 dest: 27
Time: 2177 Flit Id: 6144 Channel: 1 Router 28 dest: 27
Time: 2177 Flit Id: 7167 Channel: 4 Router 28 dest: 28
Time: 2177 Flit Id: 6355 Channel: 0 Router 35 dest: 28
Time: 2177 Flit Id: 6353 Channel: 3 Router 35 dest: 28
Time: 2177 Flit Id: 6136 Channel: 4 Router 35 dest: 35
Time: 2177 Flit Id: 7169 Channel: 3 Router 36 dest: 28
Time: 2178 Flit Id: 7119 Channel: 4 Router 27 dest: 27
Time: 2178 Flit Id: 6141 Channel: 1 Router 28 dest: 35
Time: 2178 Flit Id: 6304 Channel: 4 Router 28 dest: 28
Time: 2178 Flit Id: 6019 Channel: 0 Router 35 dest: 36
Time: 2178 Flit Id: 6139 Channel: 4 Router 35 dest: 35
Time: 2178 Flit Id: 7171 Channel: 3 Router 36 dest: 28
Time: 2178 Flit Id: 6085 Channel: 4 Router 36 dest: 36
Time: 2179 Flit Id: 6069 Channel: 2 Router 27 dest: 36
Time: 2179 Flit Id: 7121 Channel: 4 Router 27 dest: 27
Time: 2179 Flit Id: 6347 Channel: 4 Router 28 dest: 28
Time: 2179 Flit Id: 6067 Channel: 0 Router 35 dest: 36
Time: 2179 Flit Id: 6358 Channel: 3 Router 35 dest: 28
Time: 2179 Flit Id: 7105 Channel: 4 Router 35 dest: 35
Time: 2179 Flit Id: 7181 Channel: 3 Router 36 dest: 28
Time: 2180 Flit Id: 6137 Channel: 2 Router 27 dest: 35
Time: 2180 Flit Id: 6343 Channel: 4 Router 28 dest: 28
Time: 2180 Flit Id: 6357 Channel: 3 Router 35 dest: 28
Time: 2180 Flit Id: 7182 Channel: 3 Router 36 dest: 28
Time: 2180 Flit Id: 6086 Channel: 4 Router 36 dest: 36
Time: 2181 Flit Id: 6097 Channel: 0 Router 27 dest: 28
Time: 2181 Flit Id: 6041 Channel: 2 Router 27 dest: 35
Time: 2181 Flit Id: 6144 Channel: 4 Router 27 dest: 27
Time: 2181 Flit Id: 6147 Channel: 1 Router 28 dest: 27
Time: 2181 Flit Id: 7168 Channel: 4 Router 28 dest: 28
Time: 2181 Flit Id: 6140 Channel: 4 Router 35 dest: 35
Time: 2182 Flit Id: 6141 Channel: 2 Router 27 dest: 35
Time: 2182 Flit Id: 6143 Channel: 4 Router 27 dest: 27
Time: 2182 Flit Id: 6131 Channel: 1 Router 28 dest: 35
Time: 2182 Flit Id: 6096 Channel: 4 Router 28 dest: 28
Time: 2182 Flit Id: 6342 Channel: 3 Router 36 dest: 28
Time: 2182 Flit Id: 6019 Channel: 4 Router 36 dest: 36
Time: 2183 Flit Id: 6066 Channel: 2 Router 27 dest: 36
Time: 2183 Flit Id: 6145 Channel: 1 Router 28 dest: 27
Time: 2183 Flit Id: 7169 Channel: 4 Router 28 dest: 28
Time: 2183 Flit Id: 6069 Channel: 0 Router 35 dest: 36
Time: 2183 Flit Id: 7195 Channel: 1 Router 36 dest: 35
Time: 2183 Flit Id: 6303 Channel: 3 Router 36 dest: 28
Time: 2184 Flit Id: 6346 Channel: 0 Router 27 dest: 28
Time: 2184 Flit Id: 6084 Channel: 2 Router 27 dest: 36
Time: 2184 Flit Id: 6149 Channel: 1 Router 28 dest: 27
Time: 2184 Flit Id: 7170 Channel: 4 Router 28 dest: 28
Time: 2184 Flit Id: 6137 Channel: 4 Router 35 dest: 35
Time: 2184 Flit Id: 7196 Channel: 1 Router 36 dest: 35
Time: 2184 Flit Id: 6067 Channel: 4 Router 36 dest: 36
Time: 2185 Flit Id: 6100 Channel: 0 Router 27 dest: 28
Time: 2185 Flit Id: 6147 Channel: 4 Router 27 dest: 27
Time: 2185 Flit Id: 6132 Channel: 1 Router 28 dest: 35
Time: 2185 Flit Id: 7171 Channel: 4 Router 28 dest: 28
Time: 2185 Flit Id: 6041 Channel: 4 Router 35 dest: 35
Time: 2185 Flit Id: 7197 Channel: 1 Router 36 dest: 35
Time: 2186 Flit Id: 6099 Channel: 0 Router 27 dest: 28
Time: 2186 Flit Id: 6131 Channel: 2 Router 27 dest: 35
Time: 2186 Flit Id: 6158 Channel: 2 Router 28 dest: 36
Time: 2186 Flit Id: 6342 Channel: 4 Router 28 dest: 28
Time: 2186 Flit Id: 6141 Channel: 4 Router 35 dest: 35
Time: 2186 Flit Id: 6348 Channel: 3 Router 36 dest: 28
Time: 2187 Flit Id: 6110 Channel: 0 Router 27 dest: 36
Time: 2187 Flit Id: 6145 Channel: 4 Router 27 dest: 27
Time: 2187 Flit Id: 6159 Channel: 2 Router 28 dest: 36
Time: 2187 Flit Id: 6097 Channel: 4 Router 28 dest: 28
Time: 2187 Flit Id: 6356 Channel: 0 Router 35 dest: 28
Time: 2187 Flit Id: 7195 Channel: 4 Router 35 dest: 35
Time: 2187 Flit Id: 6069 Channel: 4 Router 36 dest: 36
Time: 2188 Flit Id: 6111 Channel: 0 Router 27 dest: 36
Time: 2188 Flit Id: 6087 Channel: 2 Router 27 dest: 36
Time: 2188 Flit Id: 6149 Channel: 4 Router 27 dest: 27
Time: 2188 Flit Id: 6138 Channel: 1 Router 28 dest: 35
Time: 2188 Flit Id: 6160 Channel: 2 Router 28 dest: 36
Time: 2188 Flit Id: 6303 Channel: 4 Router 28 dest: 28
Time: 2188 Flit Id: 6352 Channel: 0 Router 35 dest: 28
Time: 2188 Flit Id: 7196 Channel: 4 Router 35 dest: 35
Time: 2188 Flit Id: 7198 Channel: 1 Router 36 dest: 35
Time: 2188 Flit Id: 7172 Channel: 3 Router 36 dest: 28
Time: 2189 Flit Id: 6112 Channel: 0 Router 27 dest: 36
Time: 2189 Flit Id: 6132 Channel: 2 Router 27 dest: 35
Time: 2189 Flit Id: 6161 Channel: 2 Router 28 dest: 36
Time: 2189 Flit Id: 7181 Channel: 4 Router 28 dest: 28
Time: 2189 Flit Id: 6084 Channel: 0 Router 35 dest: 36
Time: 2189 Flit Id: 6354 Channel: 3 Router 35 dest: 28
Time: 2189 Flit Id: 7197 Channel: 4 Router 35 dest: 35
Time: 2189 Flit Id: 7199 Channel: 1 Router 36 dest: 35
Time: 2190 Flit Id: 6098 Channel: 0 Router 27 dest: 28
Time: 2190 Flit Id: 6166 Channel: 2 Router 27 dest: 35
Time: 2190 Flit Id: 6162 Channel: 2 Router 28 dest: 36
Time: 2190 Flit Id: 6348 Channel: 4 Router 28 dest: 28
Time: 2190 Flit Id: 6066 Channel: 0 Router 35 dest: 36
Time: 2190 Flit Id: 6131 Channel: 4 Router 35 dest: 35
Time: 2190 Flit Id: 7200 Channel: 1 Router 36 dest: 35
Time: 2190 Flit Id: 7184 Channel: 3 Router 36 dest: 28
Time: 2190 Flit Id: 6158 Channel: 4 Router 36 dest: 36
Time: 2191 Flit Id: 6167 Channel: 2 Router 27 dest: 35
Time: 2191 Flit Id: 6146 Channel: 1 Router 28 dest: 27
Time: 2191 Flit Id: 7182 Channel: 4 Router 28 dest: 28
Time: 2191 Flit Id: 6359 Channel: 0 Router 35 dest: 28
Time: 2191 Flit Id: 6355 Channel: 3 Router 36 dest: 28
Time: 2191 Flit Id: 6159 Channel: 4 Router 36 dest: 36
Time: 2192 Flit Id: 6358 Channel: 0 Router 27 dest: 28
Time: 2192 Flit Id: 6113 Channel: 2 Router 27 dest: 36
Time: 2192 Flit Id: 6148 Channel: 1 Router 28 dest: 27
Time: 2192 Flit Id: 6100 Channel: 4 Router 28 dest: 28
Time: 2192 Flit Id: 6087 Channel: 0 Router 35 dest: 36
Time: 2192 Flit Id: 7198 Channel: 4 Router 35 dest: 35
Time: 2192 Flit Id: 6160 Channel: 4 Router 36 dest: 36
Time: 2193 Flit Id: 6164 Channel: 2 Router 28 dest: 36
Time: 2193 Flit Id: 6346 Channel: 4 Router 28 dest: 28
Time: 2193 Flit Id: 7199 Channel: 4 Router 35 dest: 35
Time: 2193 Flit Id: 7201 Channel: 3 Router 36 dest: 28
Time: 2193 Flit Id: 6161 Channel: 4 Router 36 dest: 36
Time: 2194 Flit Id: 6168 Channel: 2 Router 27 dest: 35
Time: 2194 Flit Id: 6163 Channel: 2 Router 28 dest: 36
Time: 2194 Flit Id: 7172 Channel: 4 Router 28 dest: 28
Time: 2194 Flit Id: 6365 Channel: 0 Router 35 dest: 36
Time: 2194 Flit Id: 6132 Channel: 4 Router 35 dest: 35
Time: 2194 Flit Id: 7202 Channel: 3 Router 36 dest: 28
Time: 2194 Flit Id: 6084 Channel: 4 Router 36 dest: 36
Time: 2195 Flit Id: 6138 Channel: 2 Router 27 dest: 35
Time: 2195 Flit Id: 6146 Channel: 4 Router 27 dest: 27
Time: 2195 Flit Id: 6175 Channel: 2 Router 28 dest: 36
Time: 2195 Flit Id: 6355 Channel: 4 Router 28 dest: 28
Time: 2195 Flit Id: 7200 Channel: 4 Router 35 dest: 35
Time: 2195 Flit Id: 6352 Channel: 3 Router 36 dest: 28
Time: 2195 Flit Id: 6162 Channel: 4 Router 36 dest: 36
Time: 2196 Flit Id: 6148 Channel: 4 Router 27 dest: 27
Time: 2196 Flit Id: 7184 Channel: 4 Router 28 dest: 28
Time: 2196 Flit Id: 6363 Channel: 0 Router 35 dest: 36
Time: 2196 Flit Id: 6167 Channel: 4 Router 35 dest: 35
Time: 2196 Flit Id: 7203 Channel: 3 Router 36 dest: 28
Time: 2196 Flit Id: 6066 Channel: 4 Router 36 dest: 36
Time: 2197 Flit Id: 6177 Channel: 2 Router 28 dest: 36
Time: 2197 Flit Id: 6099 Channel: 4 Router 28 dest: 28
Time: 2197 Flit Id: 6344 Channel: 3 Router 35 dest: 28
Time: 2197 Flit Id: 6166 Channel: 4 Router 35 dest: 35
Time: 2197 Flit Id: 7179 Channel: 3 Router 36 dest: 28
Time: 2197 Flit Id: 6087 Channel: 4 Router 36 dest: 36
Time: 2198 Flit Id: 6353 Channel: 0 Router 27 dest: 28
Time: 2198 Flit Id: 6194 Channel: 2 Router 27 dest: 36
Time: 2198 Flit Id: 6111 Channel: 2 Router 28 dest: 36
Time: 2198 Flit Id: 7201 Channel: 4 Router 28 dest: 28
Time: 2198 Flit Id: 6168 Channel: 4 Router 35 dest: 35
Time: 2198 Flit Id: 6164 Channel: 4 Router 36 dest: 36
Time: 2199 Flit Id: 6173 Channel: 2 Router 27 dest: 35
Time: 2199 Flit Id: 6110 Channel: 2 Router 28 dest: 36
Time: 2199 Flit Id: 6098 Channel: 4 Router 28 dest: 28
Time: 2199 Flit Id: 6113 Channel: 0 Router 35 dest: 36
Time: 2199 Flit Id: 7180 Channel: 3 Router 36 dest: 28
Time: 2199 Flit Id: 6365 Channel: 4 Router 36 dest: 36
Average latency for class 0 exceeded 500 cycles. Aborting simulation.
Simulation unstable, ending ...
Total run time 0.2196
